*SPEF "ieee 1481-1999"
*DESIGN "tt_um_meriac_play_tune"
*DATE "11:11:11 Fri 11 11, 1111"
*VENDOR "OpenRCX"
*PROGRAM "Parallel Extraction"
*VERSION "1.0"
*DESIGN_FLOW "NAME_SCOPE LOCAL" "PIN_CAP NONE"
*DIVIDER /
*DELIMITER :
*BUS_DELIMITER []
*T_UNIT 1 NS
*C_UNIT 1 PF
*R_UNIT 1 OHM
*L_UNIT 1 HENRY

*NAME_MAP
*3 clk
*4 ena
*5 rst_n
*6 ui_in[0]
*7 ui_in[1]
*8 ui_in[2]
*9 ui_in[3]
*10 ui_in[4]
*11 ui_in[5]
*12 ui_in[6]
*13 ui_in[7]
*14 uio_in[0]
*15 uio_in[1]
*16 uio_in[2]
*17 uio_in[3]
*18 uio_in[4]
*19 uio_in[5]
*20 uio_in[6]
*21 uio_in[7]
*22 net19
*23 net20
*24 net21
*25 net22
*26 net23
*27 net24
*28 net25
*29 net26
*30 uio_out[0]
*31 uio_out[1]
*32 net13
*33 net14
*34 net15
*35 net16
*36 net17
*37 net18
*38 uo_out[0]
*39 uo_out[1]
*40 uo_out[2]
*41 uo_out[3]
*42 uo_out[4]
*43 uo_out[5]
*44 uo_out[6]
*45 uo_out[7]
*46 _000_
*47 _001_
*48 _002_
*49 _003_
*50 _004_
*51 _005_
*52 _006_
*53 _007_
*54 _008_
*55 _009_
*56 _010_
*57 _011_
*58 _012_
*59 _013_
*60 _014_
*61 _015_
*62 _016_
*63 _017_
*64 _018_
*65 _019_
*66 _020_
*67 _021_
*68 _022_
*69 _023_
*70 _024_
*71 _025_
*72 _026_
*73 _027_
*74 _028_
*75 _029_
*76 _030_
*77 _031_
*78 _032_
*79 _033_
*80 _034_
*81 _035_
*82 _036_
*83 _037_
*84 _038_
*85 _039_
*86 _040_
*87 _041_
*88 _042_
*89 _043_
*90 _044_
*91 _045_
*92 _046_
*93 _047_
*94 _048_
*95 _049_
*96 _050_
*97 _051_
*98 _052_
*99 _053_
*100 _054_
*101 _055_
*102 _056_
*103 _057_
*104 _058_
*105 _059_
*106 _060_
*107 _061_
*108 _062_
*109 _063_
*110 _064_
*111 _065_
*112 _066_
*113 _067_
*114 _068_
*115 _069_
*116 _070_
*117 _071_
*118 _072_
*119 _073_
*120 _074_
*121 _075_
*122 _076_
*123 _077_
*124 _078_
*125 _079_
*126 _080_
*127 _081_
*128 _082_
*129 _083_
*130 _084_
*131 _085_
*132 _086_
*133 _087_
*134 _088_
*135 _089_
*136 _090_
*137 _091_
*138 _092_
*139 _093_
*140 _094_
*141 _095_
*142 _096_
*143 _097_
*144 _098_
*145 _099_
*146 _100_
*147 _101_
*148 _102_
*149 _103_
*150 _104_
*151 _105_
*152 _106_
*153 _107_
*154 _108_
*155 _109_
*156 _110_
*157 _111_
*158 _112_
*159 _113_
*160 _114_
*161 _115_
*162 _116_
*163 _117_
*164 _118_
*165 _119_
*166 _120_
*167 _121_
*168 _122_
*169 _123_
*170 _124_
*171 _125_
*172 _126_
*173 _127_
*174 _128_
*175 _129_
*176 _130_
*177 _131_
*178 _132_
*179 _133_
*180 _134_
*181 _135_
*182 _136_
*183 _137_
*184 _138_
*185 _139_
*186 _140_
*187 _141_
*188 _142_
*189 _143_
*190 _144_
*191 _145_
*192 _146_
*193 _147_
*194 _148_
*195 _149_
*196 _150_
*197 _151_
*198 _152_
*199 _153_
*200 _154_
*201 _155_
*202 _156_
*203 _157_
*204 _158_
*205 _159_
*206 _160_
*207 _161_
*208 _162_
*209 _163_
*210 _164_
*211 _165_
*212 _166_
*213 _167_
*214 _168_
*215 _169_
*216 _170_
*217 _171_
*218 _172_
*219 _173_
*220 _174_
*221 _175_
*222 _176_
*223 _177_
*224 _178_
*225 _179_
*226 _180_
*227 _181_
*228 _182_
*229 _183_
*230 _184_
*231 _185_
*232 _186_
*233 _187_
*234 _188_
*235 _189_
*236 _190_
*237 _191_
*238 _192_
*239 _193_
*240 _194_
*241 _195_
*242 _196_
*243 _197_
*244 _198_
*245 _199_
*246 _200_
*247 _201_
*248 _202_
*249 _203_
*250 _204_
*251 _205_
*252 _206_
*253 _207_
*254 _208_
*255 _209_
*256 _210_
*257 _211_
*258 _212_
*259 _213_
*260 _214_
*261 _215_
*262 _216_
*263 _217_
*264 _218_
*265 _219_
*266 _220_
*267 _221_
*268 _222_
*269 _223_
*270 _224_
*271 _225_
*272 _226_
*273 _227_
*274 _228_
*275 _229_
*276 _230_
*277 _231_
*278 _232_
*279 _233_
*280 _234_
*281 _235_
*282 _236_
*283 _237_
*284 _238_
*285 _239_
*286 _240_
*287 _241_
*288 _242_
*289 _243_
*290 _244_
*291 _245_
*292 _246_
*293 _247_
*294 _248_
*295 _249_
*296 _250_
*297 _251_
*298 _252_
*299 _253_
*300 _254_
*301 _255_
*302 _256_
*303 _257_
*304 _258_
*305 _259_
*306 _260_
*307 _261_
*308 _262_
*309 _263_
*310 _264_
*311 _265_
*312 _266_
*313 _267_
*314 _268_
*315 _269_
*316 _270_
*317 _271_
*318 _272_
*319 _273_
*320 _274_
*321 _275_
*322 _276_
*323 _277_
*324 _278_
*325 _279_
*326 _280_
*327 _281_
*328 _282_
*329 _283_
*330 _284_
*331 _285_
*332 _286_
*333 _287_
*334 _288_
*335 _289_
*336 _290_
*337 _291_
*338 _292_
*339 _293_
*340 _294_
*341 _295_
*342 _296_
*343 _297_
*344 _298_
*345 _299_
*346 _300_
*347 _301_
*348 _302_
*349 _303_
*350 _304_
*351 _305_
*352 _306_
*353 _307_
*354 _308_
*355 _309_
*356 _310_
*357 _311_
*358 _312_
*359 _313_
*360 _314_
*361 _315_
*362 _316_
*363 _317_
*364 _318_
*365 _319_
*366 _320_
*367 _321_
*368 _322_
*369 _323_
*370 _324_
*371 _325_
*372 _326_
*373 _327_
*374 _328_
*375 _329_
*376 _330_
*377 _331_
*378 _332_
*379 _333_
*380 _334_
*381 _335_
*382 _336_
*383 _337_
*384 _338_
*385 _339_
*386 _340_
*387 _341_
*388 _342_
*389 _343_
*390 _344_
*391 _345_
*392 _346_
*393 _347_
*394 _348_
*395 _349_
*396 _350_
*397 _351_
*398 _352_
*399 _353_
*400 _354_
*401 _355_
*402 _356_
*403 _357_
*404 _358_
*405 _359_
*406 _360_
*407 _361_
*408 _362_
*409 _363_
*410 _364_
*411 _365_
*412 _366_
*413 _367_
*414 _368_
*415 _369_
*416 _370_
*417 _371_
*418 _372_
*419 _373_
*420 _374_
*421 _375_
*422 _376_
*423 _377_
*424 _378_
*425 _379_
*426 _380_
*427 _381_
*428 clknet_0_clk
*429 clknet_2_0__leaf_clk
*430 clknet_2_1__leaf_clk
*431 clknet_2_2__leaf_clk
*432 clknet_2_3__leaf_clk
*433 counter\[0\]
*434 counter\[1\]
*435 counter\[2\]
*436 counter\[3\]
*437 counter\[4\]
*438 counter\[5\]
*439 counter\[6\]
*440 counter\[7\]
*441 freq\[0\]
*442 freq\[1\]
*443 freq\[2\]
*444 freq\[3\]
*445 freq\[4\]
*446 freq\[5\]
*447 freq\[6\]
*448 freq\[7\]
*449 meriac_tune_db\.address\[0\]
*450 meriac_tune_db\.address\[1\]
*451 meriac_tune_db\.address\[2\]
*452 meriac_tune_db\.address\[3\]
*453 meriac_tune_db\.address\[4\]
*454 meriac_tune_db\.address\[5\]
*455 meriac_tune_db\.address\[6\]
*456 meriac_tune_db\.db_entry\[0\]
*457 meriac_tune_db\.db_entry\[10\]
*458 meriac_tune_db\.db_entry\[11\]
*459 meriac_tune_db\.db_entry\[1\]
*460 meriac_tune_db\.db_entry\[2\]
*461 meriac_tune_db\.db_entry\[3\]
*462 meriac_tune_db\.db_entry\[4\]
*463 meriac_tune_db\.db_entry\[5\]
*464 meriac_tune_db\.db_entry\[6\]
*465 meriac_tune_db\.db_entry\[7\]
*466 meriac_tune_db\.db_entry\[8\]
*467 meriac_tune_db\.db_entry\[9\]
*468 net1
*469 net10
*470 net11
*471 net12
*472 net2
*473 net27
*474 net28
*475 net29
*476 net3
*477 net30
*478 net31
*479 net32
*480 net33
*481 net34
*482 net35
*483 net36
*484 net37
*485 net38
*486 net39
*487 net4
*488 net40
*489 net41
*490 net42
*491 net43
*492 net44
*493 net45
*494 net46
*495 net47
*496 net48
*497 net49
*498 net5
*499 net6
*500 net7
*501 net8
*502 net9
*503 speaker
*504 ticks\[0\]
*505 ticks\[10\]
*506 ticks\[11\]
*507 ticks\[12\]
*508 ticks\[13\]
*509 ticks\[14\]
*510 ticks\[15\]
*511 ticks\[1\]
*512 ticks\[2\]
*513 ticks\[3\]
*514 ticks\[4\]
*515 ticks\[5\]
*516 ticks\[6\]
*517 ticks\[7\]
*518 ticks\[8\]
*519 ticks\[9\]
*520 FILLER_0_0_109
*521 FILLER_0_0_113
*522 FILLER_0_0_125
*523 FILLER_0_0_137
*524 FILLER_0_0_141
*525 FILLER_0_0_15
*526 FILLER_0_0_153
*527 FILLER_0_0_165
*528 FILLER_0_0_169
*529 FILLER_0_0_181
*530 FILLER_0_0_193
*531 FILLER_0_0_197
*532 FILLER_0_0_209
*533 FILLER_0_0_221
*534 FILLER_0_0_225
*535 FILLER_0_0_237
*536 FILLER_0_0_249
*537 FILLER_0_0_253
*538 FILLER_0_0_265
*539 FILLER_0_0_27
*540 FILLER_0_0_277
*541 FILLER_0_0_281
*542 FILLER_0_0_29
*543 FILLER_0_0_293
*544 FILLER_0_0_3
*545 FILLER_0_0_305
*546 FILLER_0_0_309
*547 FILLER_0_0_321
*548 FILLER_0_0_333
*549 FILLER_0_0_337
*550 FILLER_0_0_349
*551 FILLER_0_0_41
*552 FILLER_0_0_53
*553 FILLER_0_0_57
*554 FILLER_0_0_69
*555 FILLER_0_0_81
*556 FILLER_0_0_85
*557 FILLER_0_0_97
*558 FILLER_0_10_109
*559 FILLER_0_10_121
*560 FILLER_0_10_133
*561 FILLER_0_10_139
*562 FILLER_0_10_141
*563 FILLER_0_10_15
*564 FILLER_0_10_153
*565 FILLER_0_10_165
*566 FILLER_0_10_177
*567 FILLER_0_10_189
*568 FILLER_0_10_195
*569 FILLER_0_10_197
*570 FILLER_0_10_209
*571 FILLER_0_10_221
*572 FILLER_0_10_233
*573 FILLER_0_10_245
*574 FILLER_0_10_251
*575 FILLER_0_10_253
*576 FILLER_0_10_265
*577 FILLER_0_10_27
*578 FILLER_0_10_277
*579 FILLER_0_10_289
*580 FILLER_0_10_29
*581 FILLER_0_10_3
*582 FILLER_0_10_301
*583 FILLER_0_10_307
*584 FILLER_0_10_309
*585 FILLER_0_10_321
*586 FILLER_0_10_333
*587 FILLER_0_10_345
*588 FILLER_0_10_41
*589 FILLER_0_10_53
*590 FILLER_0_10_65
*591 FILLER_0_10_77
*592 FILLER_0_10_83
*593 FILLER_0_10_85
*594 FILLER_0_10_97
*595 FILLER_0_11_105
*596 FILLER_0_11_111
*597 FILLER_0_11_113
*598 FILLER_0_11_125
*599 FILLER_0_11_137
*600 FILLER_0_11_149
*601 FILLER_0_11_15
*602 FILLER_0_11_161
*603 FILLER_0_11_167
*604 FILLER_0_11_169
*605 FILLER_0_11_181
*606 FILLER_0_11_193
*607 FILLER_0_11_205
*608 FILLER_0_11_217
*609 FILLER_0_11_223
*610 FILLER_0_11_225
*611 FILLER_0_11_237
*612 FILLER_0_11_249
*613 FILLER_0_11_261
*614 FILLER_0_11_27
*615 FILLER_0_11_273
*616 FILLER_0_11_279
*617 FILLER_0_11_281
*618 FILLER_0_11_293
*619 FILLER_0_11_3
*620 FILLER_0_11_305
*621 FILLER_0_11_317
*622 FILLER_0_11_329
*623 FILLER_0_11_335
*624 FILLER_0_11_337
*625 FILLER_0_11_349
*626 FILLER_0_11_39
*627 FILLER_0_11_51
*628 FILLER_0_11_55
*629 FILLER_0_11_57
*630 FILLER_0_11_69
*631 FILLER_0_11_81
*632 FILLER_0_11_93
*633 FILLER_0_12_109
*634 FILLER_0_12_121
*635 FILLER_0_12_133
*636 FILLER_0_12_139
*637 FILLER_0_12_141
*638 FILLER_0_12_15
*639 FILLER_0_12_153
*640 FILLER_0_12_165
*641 FILLER_0_12_177
*642 FILLER_0_12_189
*643 FILLER_0_12_195
*644 FILLER_0_12_197
*645 FILLER_0_12_209
*646 FILLER_0_12_221
*647 FILLER_0_12_233
*648 FILLER_0_12_245
*649 FILLER_0_12_251
*650 FILLER_0_12_253
*651 FILLER_0_12_265
*652 FILLER_0_12_27
*653 FILLER_0_12_277
*654 FILLER_0_12_289
*655 FILLER_0_12_29
*656 FILLER_0_12_3
*657 FILLER_0_12_301
*658 FILLER_0_12_307
*659 FILLER_0_12_309
*660 FILLER_0_12_321
*661 FILLER_0_12_333
*662 FILLER_0_12_345
*663 FILLER_0_12_41
*664 FILLER_0_12_53
*665 FILLER_0_12_65
*666 FILLER_0_12_77
*667 FILLER_0_12_83
*668 FILLER_0_12_85
*669 FILLER_0_12_97
*670 FILLER_0_13_105
*671 FILLER_0_13_111
*672 FILLER_0_13_113
*673 FILLER_0_13_125
*674 FILLER_0_13_137
*675 FILLER_0_13_149
*676 FILLER_0_13_15
*677 FILLER_0_13_161
*678 FILLER_0_13_167
*679 FILLER_0_13_169
*680 FILLER_0_13_181
*681 FILLER_0_13_193
*682 FILLER_0_13_205
*683 FILLER_0_13_217
*684 FILLER_0_13_223
*685 FILLER_0_13_225
*686 FILLER_0_13_237
*687 FILLER_0_13_259
*688 FILLER_0_13_27
*689 FILLER_0_13_271
*690 FILLER_0_13_279
*691 FILLER_0_13_281
*692 FILLER_0_13_299
*693 FILLER_0_13_3
*694 FILLER_0_13_307
*695 FILLER_0_13_316
*696 FILLER_0_13_328
*697 FILLER_0_13_337
*698 FILLER_0_13_349
*699 FILLER_0_13_39
*700 FILLER_0_13_51
*701 FILLER_0_13_55
*702 FILLER_0_13_57
*703 FILLER_0_13_69
*704 FILLER_0_13_81
*705 FILLER_0_13_93
*706 FILLER_0_14_109
*707 FILLER_0_14_121
*708 FILLER_0_14_133
*709 FILLER_0_14_139
*710 FILLER_0_14_141
*711 FILLER_0_14_15
*712 FILLER_0_14_153
*713 FILLER_0_14_165
*714 FILLER_0_14_177
*715 FILLER_0_14_189
*716 FILLER_0_14_195
*717 FILLER_0_14_197
*718 FILLER_0_14_209
*719 FILLER_0_14_221
*720 FILLER_0_14_233
*721 FILLER_0_14_245
*722 FILLER_0_14_251
*723 FILLER_0_14_253
*724 FILLER_0_14_257
*725 FILLER_0_14_27
*726 FILLER_0_14_278
*727 FILLER_0_14_29
*728 FILLER_0_14_3
*729 FILLER_0_14_302
*730 FILLER_0_14_325
*731 FILLER_0_14_337
*732 FILLER_0_14_349
*733 FILLER_0_14_41
*734 FILLER_0_14_53
*735 FILLER_0_14_65
*736 FILLER_0_14_77
*737 FILLER_0_14_83
*738 FILLER_0_14_85
*739 FILLER_0_14_97
*740 FILLER_0_15_105
*741 FILLER_0_15_111
*742 FILLER_0_15_113
*743 FILLER_0_15_125
*744 FILLER_0_15_137
*745 FILLER_0_15_149
*746 FILLER_0_15_15
*747 FILLER_0_15_161
*748 FILLER_0_15_167
*749 FILLER_0_15_169
*750 FILLER_0_15_181
*751 FILLER_0_15_193
*752 FILLER_0_15_205
*753 FILLER_0_15_217
*754 FILLER_0_15_223
*755 FILLER_0_15_225
*756 FILLER_0_15_237
*757 FILLER_0_15_249
*758 FILLER_0_15_261
*759 FILLER_0_15_27
*760 FILLER_0_15_270
*761 FILLER_0_15_278
*762 FILLER_0_15_3
*763 FILLER_0_15_314
*764 FILLER_0_15_322
*765 FILLER_0_15_335
*766 FILLER_0_15_345
*767 FILLER_0_15_39
*768 FILLER_0_15_51
*769 FILLER_0_15_55
*770 FILLER_0_15_57
*771 FILLER_0_15_69
*772 FILLER_0_15_81
*773 FILLER_0_15_93
*774 FILLER_0_16_109
*775 FILLER_0_16_121
*776 FILLER_0_16_133
*777 FILLER_0_16_139
*778 FILLER_0_16_141
*779 FILLER_0_16_15
*780 FILLER_0_16_153
*781 FILLER_0_16_165
*782 FILLER_0_16_177
*783 FILLER_0_16_189
*784 FILLER_0_16_195
*785 FILLER_0_16_197
*786 FILLER_0_16_209
*787 FILLER_0_16_221
*788 FILLER_0_16_233
*789 FILLER_0_16_256
*790 FILLER_0_16_262
*791 FILLER_0_16_266
*792 FILLER_0_16_27
*793 FILLER_0_16_29
*794 FILLER_0_16_295
*795 FILLER_0_16_3
*796 FILLER_0_16_303
*797 FILLER_0_16_309
*798 FILLER_0_16_317
*799 FILLER_0_16_343
*800 FILLER_0_16_41
*801 FILLER_0_16_53
*802 FILLER_0_16_65
*803 FILLER_0_16_77
*804 FILLER_0_16_83
*805 FILLER_0_16_85
*806 FILLER_0_16_97
*807 FILLER_0_17_105
*808 FILLER_0_17_111
*809 FILLER_0_17_113
*810 FILLER_0_17_125
*811 FILLER_0_17_137
*812 FILLER_0_17_15
*813 FILLER_0_17_166
*814 FILLER_0_17_169
*815 FILLER_0_17_177
*816 FILLER_0_17_213
*817 FILLER_0_17_222
*818 FILLER_0_17_238
*819 FILLER_0_17_27
*820 FILLER_0_17_274
*821 FILLER_0_17_281
*822 FILLER_0_17_291
*823 FILLER_0_17_295
*824 FILLER_0_17_3
*825 FILLER_0_17_304
*826 FILLER_0_17_314
*827 FILLER_0_17_322
*828 FILLER_0_17_334
*829 FILLER_0_17_345
*830 FILLER_0_17_39
*831 FILLER_0_17_51
*832 FILLER_0_17_55
*833 FILLER_0_17_57
*834 FILLER_0_17_69
*835 FILLER_0_17_81
*836 FILLER_0_17_93
*837 FILLER_0_18_111
*838 FILLER_0_18_133
*839 FILLER_0_18_138
*840 FILLER_0_18_141
*841 FILLER_0_18_15
*842 FILLER_0_18_153
*843 FILLER_0_18_161
*844 FILLER_0_18_169
*845 FILLER_0_18_179
*846 FILLER_0_18_197
*847 FILLER_0_18_212
*848 FILLER_0_18_219
*849 FILLER_0_18_234
*850 FILLER_0_18_242
*851 FILLER_0_18_250
*852 FILLER_0_18_253
*853 FILLER_0_18_27
*854 FILLER_0_18_270
*855 FILLER_0_18_283
*856 FILLER_0_18_287
*857 FILLER_0_18_29
*858 FILLER_0_18_293
*859 FILLER_0_18_3
*860 FILLER_0_18_300
*861 FILLER_0_18_306
*862 FILLER_0_18_309
*863 FILLER_0_18_315
*864 FILLER_0_18_319
*865 FILLER_0_18_348
*866 FILLER_0_18_41
*867 FILLER_0_18_53
*868 FILLER_0_18_65
*869 FILLER_0_18_77
*870 FILLER_0_18_83
*871 FILLER_0_18_85
*872 FILLER_0_18_93
*873 FILLER_0_18_97
*874 FILLER_0_19_102
*875 FILLER_0_19_110
*876 FILLER_0_19_113
*877 FILLER_0_19_121
*878 FILLER_0_19_126
*879 FILLER_0_19_142
*880 FILLER_0_19_149
*881 FILLER_0_19_15
*882 FILLER_0_19_169
*883 FILLER_0_19_188
*884 FILLER_0_19_204
*885 FILLER_0_19_222
*886 FILLER_0_19_225
*887 FILLER_0_19_231
*888 FILLER_0_19_253
*889 FILLER_0_19_264
*890 FILLER_0_19_27
*891 FILLER_0_19_279
*892 FILLER_0_19_285
*893 FILLER_0_19_289
*894 FILLER_0_19_3
*895 FILLER_0_19_334
*896 FILLER_0_19_337
*897 FILLER_0_19_349
*898 FILLER_0_19_39
*899 FILLER_0_19_51
*900 FILLER_0_19_55
*901 FILLER_0_19_57
*902 FILLER_0_19_69
*903 FILLER_0_19_77
*904 FILLER_0_1_105
*905 FILLER_0_1_111
*906 FILLER_0_1_113
*907 FILLER_0_1_125
*908 FILLER_0_1_137
*909 FILLER_0_1_149
*910 FILLER_0_1_15
*911 FILLER_0_1_161
*912 FILLER_0_1_167
*913 FILLER_0_1_169
*914 FILLER_0_1_181
*915 FILLER_0_1_193
*916 FILLER_0_1_205
*917 FILLER_0_1_217
*918 FILLER_0_1_223
*919 FILLER_0_1_225
*920 FILLER_0_1_237
*921 FILLER_0_1_249
*922 FILLER_0_1_261
*923 FILLER_0_1_27
*924 FILLER_0_1_273
*925 FILLER_0_1_279
*926 FILLER_0_1_281
*927 FILLER_0_1_293
*928 FILLER_0_1_3
*929 FILLER_0_1_305
*930 FILLER_0_1_317
*931 FILLER_0_1_329
*932 FILLER_0_1_335
*933 FILLER_0_1_337
*934 FILLER_0_1_349
*935 FILLER_0_1_39
*936 FILLER_0_1_51
*937 FILLER_0_1_55
*938 FILLER_0_1_57
*939 FILLER_0_1_69
*940 FILLER_0_1_81
*941 FILLER_0_1_93
*942 FILLER_0_20_102
*943 FILLER_0_20_110
*944 FILLER_0_20_136
*945 FILLER_0_20_148
*946 FILLER_0_20_15
*947 FILLER_0_20_156
*948 FILLER_0_20_169
*949 FILLER_0_20_179
*950 FILLER_0_20_191
*951 FILLER_0_20_195
*952 FILLER_0_20_204
*953 FILLER_0_20_225
*954 FILLER_0_20_231
*955 FILLER_0_20_246
*956 FILLER_0_20_263
*957 FILLER_0_20_27
*958 FILLER_0_20_288
*959 FILLER_0_20_29
*960 FILLER_0_20_3
*961 FILLER_0_20_302
*962 FILLER_0_20_309
*963 FILLER_0_20_321
*964 FILLER_0_20_339
*965 FILLER_0_20_41
*966 FILLER_0_20_53
*967 FILLER_0_20_65
*968 FILLER_0_20_77
*969 FILLER_0_20_83
*970 FILLER_0_20_85
*971 FILLER_0_20_93
*972 FILLER_0_21_109
*973 FILLER_0_21_113
*974 FILLER_0_21_125
*975 FILLER_0_21_144
*976 FILLER_0_21_15
*977 FILLER_0_21_158
*978 FILLER_0_21_167
*979 FILLER_0_21_169
*980 FILLER_0_21_178
*981 FILLER_0_21_187
*982 FILLER_0_21_194
*983 FILLER_0_21_201
*984 FILLER_0_21_231
*985 FILLER_0_21_242
*986 FILLER_0_21_251
*987 FILLER_0_21_264
*988 FILLER_0_21_268
*989 FILLER_0_21_27
*990 FILLER_0_21_277
*991 FILLER_0_21_281
*992 FILLER_0_21_289
*993 FILLER_0_21_296
*994 FILLER_0_21_3
*995 FILLER_0_21_307
*996 FILLER_0_21_311
*997 FILLER_0_21_321
*998 FILLER_0_21_334
*999 FILLER_0_21_337
*1000 FILLER_0_21_349
*1001 FILLER_0_21_39
*1002 FILLER_0_21_51
*1003 FILLER_0_21_55
*1004 FILLER_0_21_57
*1005 FILLER_0_21_69
*1006 FILLER_0_21_77
*1007 FILLER_0_21_95
*1008 FILLER_0_22_110
*1009 FILLER_0_22_131
*1010 FILLER_0_22_139
*1011 FILLER_0_22_15
*1012 FILLER_0_22_150
*1013 FILLER_0_22_165
*1014 FILLER_0_22_177
*1015 FILLER_0_22_181
*1016 FILLER_0_22_189
*1017 FILLER_0_22_195
*1018 FILLER_0_22_214
*1019 FILLER_0_22_223
*1020 FILLER_0_22_229
*1021 FILLER_0_22_240
*1022 FILLER_0_22_253
*1023 FILLER_0_22_265
*1024 FILLER_0_22_27
*1025 FILLER_0_22_285
*1026 FILLER_0_22_29
*1027 FILLER_0_22_293
*1028 FILLER_0_22_298
*1029 FILLER_0_22_3
*1030 FILLER_0_22_303
*1031 FILLER_0_22_307
*1032 FILLER_0_22_309
*1033 FILLER_0_22_333
*1034 FILLER_0_22_350
*1035 FILLER_0_22_41
*1036 FILLER_0_22_53
*1037 FILLER_0_22_65
*1038 FILLER_0_22_73
*1039 FILLER_0_22_80
*1040 FILLER_0_22_85
*1041 FILLER_0_22_93
*1042 FILLER_0_23_108
*1043 FILLER_0_23_113
*1044 FILLER_0_23_126
*1045 FILLER_0_23_146
*1046 FILLER_0_23_15
*1047 FILLER_0_23_154
*1048 FILLER_0_23_160
*1049 FILLER_0_23_176
*1050 FILLER_0_23_195
*1051 FILLER_0_23_204
*1052 FILLER_0_23_249
*1053 FILLER_0_23_268
*1054 FILLER_0_23_27
*1055 FILLER_0_23_284
*1056 FILLER_0_23_292
*1057 FILLER_0_23_3
*1058 FILLER_0_23_314
*1059 FILLER_0_23_322
*1060 FILLER_0_23_326
*1061 FILLER_0_23_331
*1062 FILLER_0_23_335
*1063 FILLER_0_23_345
*1064 FILLER_0_23_39
*1065 FILLER_0_23_51
*1066 FILLER_0_23_55
*1067 FILLER_0_23_57
*1068 FILLER_0_23_87
*1069 FILLER_0_23_96
*1070 FILLER_0_24_100
*1071 FILLER_0_24_106
*1072 FILLER_0_24_113
*1073 FILLER_0_24_131
*1074 FILLER_0_24_139
*1075 FILLER_0_24_141
*1076 FILLER_0_24_149
*1077 FILLER_0_24_15
*1078 FILLER_0_24_157
*1079 FILLER_0_24_165
*1080 FILLER_0_24_173
*1081 FILLER_0_24_185
*1082 FILLER_0_24_193
*1083 FILLER_0_24_197
*1084 FILLER_0_24_228
*1085 FILLER_0_24_240
*1086 FILLER_0_24_248
*1087 FILLER_0_24_253
*1088 FILLER_0_24_265
*1089 FILLER_0_24_27
*1090 FILLER_0_24_29
*1091 FILLER_0_24_294
*1092 FILLER_0_24_3
*1093 FILLER_0_24_307
*1094 FILLER_0_24_330
*1095 FILLER_0_24_349
*1096 FILLER_0_24_41
*1097 FILLER_0_24_53
*1098 FILLER_0_24_65
*1099 FILLER_0_24_79
*1100 FILLER_0_24_83
*1101 FILLER_0_24_85
*1102 FILLER_0_24_91
*1103 FILLER_0_25_123
*1104 FILLER_0_25_131
*1105 FILLER_0_25_135
*1106 FILLER_0_25_15
*1107 FILLER_0_25_153
*1108 FILLER_0_25_185
*1109 FILLER_0_25_203
*1110 FILLER_0_25_209
*1111 FILLER_0_25_218
*1112 FILLER_0_25_249
*1113 FILLER_0_25_261
*1114 FILLER_0_25_27
*1115 FILLER_0_25_273
*1116 FILLER_0_25_279
*1117 FILLER_0_25_281
*1118 FILLER_0_25_293
*1119 FILLER_0_25_3
*1120 FILLER_0_25_309
*1121 FILLER_0_25_313
*1122 FILLER_0_25_328
*1123 FILLER_0_25_337
*1124 FILLER_0_25_349
*1125 FILLER_0_25_39
*1126 FILLER_0_25_51
*1127 FILLER_0_25_55
*1128 FILLER_0_25_57
*1129 FILLER_0_25_69
*1130 FILLER_0_25_89
*1131 FILLER_0_26_102
*1132 FILLER_0_26_114
*1133 FILLER_0_26_126
*1134 FILLER_0_26_134
*1135 FILLER_0_26_139
*1136 FILLER_0_26_141
*1137 FILLER_0_26_15
*1138 FILLER_0_26_153
*1139 FILLER_0_26_157
*1140 FILLER_0_26_165
*1141 FILLER_0_26_173
*1142 FILLER_0_26_180
*1143 FILLER_0_26_192
*1144 FILLER_0_26_204
*1145 FILLER_0_26_213
*1146 FILLER_0_26_221
*1147 FILLER_0_26_256
*1148 FILLER_0_26_27
*1149 FILLER_0_26_273
*1150 FILLER_0_26_29
*1151 FILLER_0_26_291
*1152 FILLER_0_26_3
*1153 FILLER_0_26_309
*1154 FILLER_0_26_332
*1155 FILLER_0_26_350
*1156 FILLER_0_26_41
*1157 FILLER_0_26_53
*1158 FILLER_0_26_65
*1159 FILLER_0_26_73
*1160 FILLER_0_26_82
*1161 FILLER_0_26_91
*1162 FILLER_0_26_95
*1163 FILLER_0_27_109
*1164 FILLER_0_27_113
*1165 FILLER_0_27_117
*1166 FILLER_0_27_130
*1167 FILLER_0_27_136
*1168 FILLER_0_27_15
*1169 FILLER_0_27_161
*1170 FILLER_0_27_167
*1171 FILLER_0_27_169
*1172 FILLER_0_27_199
*1173 FILLER_0_27_211
*1174 FILLER_0_27_215
*1175 FILLER_0_27_221
*1176 FILLER_0_27_225
*1177 FILLER_0_27_237
*1178 FILLER_0_27_243
*1179 FILLER_0_27_251
*1180 FILLER_0_27_256
*1181 FILLER_0_27_27
*1182 FILLER_0_27_293
*1183 FILLER_0_27_299
*1184 FILLER_0_27_3
*1185 FILLER_0_27_303
*1186 FILLER_0_27_315
*1187 FILLER_0_27_331
*1188 FILLER_0_27_335
*1189 FILLER_0_27_337
*1190 FILLER_0_27_349
*1191 FILLER_0_27_39
*1192 FILLER_0_27_51
*1193 FILLER_0_27_55
*1194 FILLER_0_27_57
*1195 FILLER_0_27_69
*1196 FILLER_0_27_77
*1197 FILLER_0_27_81
*1198 FILLER_0_28_100
*1199 FILLER_0_28_114
*1200 FILLER_0_28_123
*1201 FILLER_0_28_135
*1202 FILLER_0_28_139
*1203 FILLER_0_28_141
*1204 FILLER_0_28_15
*1205 FILLER_0_28_153
*1206 FILLER_0_28_179
*1207 FILLER_0_28_187
*1208 FILLER_0_28_195
*1209 FILLER_0_28_197
*1210 FILLER_0_28_207
*1211 FILLER_0_28_235
*1212 FILLER_0_28_247
*1213 FILLER_0_28_251
*1214 FILLER_0_28_256
*1215 FILLER_0_28_268
*1216 FILLER_0_28_27
*1217 FILLER_0_28_288
*1218 FILLER_0_28_29
*1219 FILLER_0_28_3
*1220 FILLER_0_28_306
*1221 FILLER_0_28_309
*1222 FILLER_0_28_315
*1223 FILLER_0_28_333
*1224 FILLER_0_28_41
*1225 FILLER_0_28_53
*1226 FILLER_0_28_65
*1227 FILLER_0_28_73
*1228 FILLER_0_28_85
*1229 FILLER_0_28_93
*1230 FILLER_0_29_106
*1231 FILLER_0_29_113
*1232 FILLER_0_29_129
*1233 FILLER_0_29_137
*1234 FILLER_0_29_15
*1235 FILLER_0_29_158
*1236 FILLER_0_29_169
*1237 FILLER_0_29_191
*1238 FILLER_0_29_195
*1239 FILLER_0_29_200
*1240 FILLER_0_29_209
*1241 FILLER_0_29_221
*1242 FILLER_0_29_225
*1243 FILLER_0_29_237
*1244 FILLER_0_29_245
*1245 FILLER_0_29_266
*1246 FILLER_0_29_27
*1247 FILLER_0_29_278
*1248 FILLER_0_29_287
*1249 FILLER_0_29_3
*1250 FILLER_0_29_335
*1251 FILLER_0_29_337
*1252 FILLER_0_29_348
*1253 FILLER_0_29_39
*1254 FILLER_0_29_51
*1255 FILLER_0_29_55
*1256 FILLER_0_29_57
*1257 FILLER_0_29_69
*1258 FILLER_0_29_77
*1259 FILLER_0_29_85
*1260 FILLER_0_29_97
*1261 FILLER_0_2_109
*1262 FILLER_0_2_121
*1263 FILLER_0_2_133
*1264 FILLER_0_2_139
*1265 FILLER_0_2_141
*1266 FILLER_0_2_15
*1267 FILLER_0_2_153
*1268 FILLER_0_2_165
*1269 FILLER_0_2_177
*1270 FILLER_0_2_189
*1271 FILLER_0_2_195
*1272 FILLER_0_2_197
*1273 FILLER_0_2_209
*1274 FILLER_0_2_221
*1275 FILLER_0_2_233
*1276 FILLER_0_2_245
*1277 FILLER_0_2_251
*1278 FILLER_0_2_253
*1279 FILLER_0_2_265
*1280 FILLER_0_2_27
*1281 FILLER_0_2_277
*1282 FILLER_0_2_289
*1283 FILLER_0_2_29
*1284 FILLER_0_2_3
*1285 FILLER_0_2_301
*1286 FILLER_0_2_307
*1287 FILLER_0_2_309
*1288 FILLER_0_2_321
*1289 FILLER_0_2_333
*1290 FILLER_0_2_345
*1291 FILLER_0_2_41
*1292 FILLER_0_2_53
*1293 FILLER_0_2_65
*1294 FILLER_0_2_77
*1295 FILLER_0_2_83
*1296 FILLER_0_2_85
*1297 FILLER_0_2_97
*1298 FILLER_0_30_108
*1299 FILLER_0_30_131
*1300 FILLER_0_30_139
*1301 FILLER_0_30_141
*1302 FILLER_0_30_15
*1303 FILLER_0_30_152
*1304 FILLER_0_30_157
*1305 FILLER_0_30_185
*1306 FILLER_0_30_202
*1307 FILLER_0_30_208
*1308 FILLER_0_30_214
*1309 FILLER_0_30_233
*1310 FILLER_0_30_253
*1311 FILLER_0_30_261
*1312 FILLER_0_30_268
*1313 FILLER_0_30_27
*1314 FILLER_0_30_288
*1315 FILLER_0_30_29
*1316 FILLER_0_30_294
*1317 FILLER_0_30_3
*1318 FILLER_0_30_305
*1319 FILLER_0_30_349
*1320 FILLER_0_30_41
*1321 FILLER_0_30_53
*1322 FILLER_0_30_65
*1323 FILLER_0_30_77
*1324 FILLER_0_30_83
*1325 FILLER_0_30_85
*1326 FILLER_0_30_93
*1327 FILLER_0_31_105
*1328 FILLER_0_31_111
*1329 FILLER_0_31_113
*1330 FILLER_0_31_121
*1331 FILLER_0_31_139
*1332 FILLER_0_31_15
*1333 FILLER_0_31_151
*1334 FILLER_0_31_163
*1335 FILLER_0_31_167
*1336 FILLER_0_31_169
*1337 FILLER_0_31_181
*1338 FILLER_0_31_203
*1339 FILLER_0_31_219
*1340 FILLER_0_31_223
*1341 FILLER_0_31_225
*1342 FILLER_0_31_237
*1343 FILLER_0_31_257
*1344 FILLER_0_31_269
*1345 FILLER_0_31_27
*1346 FILLER_0_31_290
*1347 FILLER_0_31_3
*1348 FILLER_0_31_306
*1349 FILLER_0_31_318
*1350 FILLER_0_31_326
*1351 FILLER_0_31_337
*1352 FILLER_0_31_349
*1353 FILLER_0_31_39
*1354 FILLER_0_31_51
*1355 FILLER_0_31_55
*1356 FILLER_0_31_57
*1357 FILLER_0_31_69
*1358 FILLER_0_31_81
*1359 FILLER_0_31_93
*1360 FILLER_0_32_109
*1361 FILLER_0_32_121
*1362 FILLER_0_32_138
*1363 FILLER_0_32_141
*1364 FILLER_0_32_15
*1365 FILLER_0_32_160
*1366 FILLER_0_32_180
*1367 FILLER_0_32_187
*1368 FILLER_0_32_195
*1369 FILLER_0_32_197
*1370 FILLER_0_32_225
*1371 FILLER_0_32_232
*1372 FILLER_0_32_240
*1373 FILLER_0_32_253
*1374 FILLER_0_32_259
*1375 FILLER_0_32_27
*1376 FILLER_0_32_279
*1377 FILLER_0_32_287
*1378 FILLER_0_32_29
*1379 FILLER_0_32_299
*1380 FILLER_0_32_3
*1381 FILLER_0_32_307
*1382 FILLER_0_32_309
*1383 FILLER_0_32_313
*1384 FILLER_0_32_344
*1385 FILLER_0_32_350
*1386 FILLER_0_32_41
*1387 FILLER_0_32_53
*1388 FILLER_0_32_65
*1389 FILLER_0_32_77
*1390 FILLER_0_32_83
*1391 FILLER_0_32_85
*1392 FILLER_0_32_97
*1393 FILLER_0_33_105
*1394 FILLER_0_33_111
*1395 FILLER_0_33_113
*1396 FILLER_0_33_125
*1397 FILLER_0_33_137
*1398 FILLER_0_33_149
*1399 FILLER_0_33_15
*1400 FILLER_0_33_154
*1401 FILLER_0_33_165
*1402 FILLER_0_33_169
*1403 FILLER_0_33_202
*1404 FILLER_0_33_213
*1405 FILLER_0_33_221
*1406 FILLER_0_33_238
*1407 FILLER_0_33_248
*1408 FILLER_0_33_263
*1409 FILLER_0_33_27
*1410 FILLER_0_33_275
*1411 FILLER_0_33_279
*1412 FILLER_0_33_281
*1413 FILLER_0_33_294
*1414 FILLER_0_33_298
*1415 FILLER_0_33_3
*1416 FILLER_0_33_310
*1417 FILLER_0_33_329
*1418 FILLER_0_33_335
*1419 FILLER_0_33_337
*1420 FILLER_0_33_349
*1421 FILLER_0_33_39
*1422 FILLER_0_33_51
*1423 FILLER_0_33_55
*1424 FILLER_0_33_57
*1425 FILLER_0_33_69
*1426 FILLER_0_33_81
*1427 FILLER_0_33_93
*1428 FILLER_0_34_109
*1429 FILLER_0_34_121
*1430 FILLER_0_34_141
*1431 FILLER_0_34_15
*1432 FILLER_0_34_163
*1433 FILLER_0_34_176
*1434 FILLER_0_34_188
*1435 FILLER_0_34_197
*1436 FILLER_0_34_205
*1437 FILLER_0_34_215
*1438 FILLER_0_34_235
*1439 FILLER_0_34_247
*1440 FILLER_0_34_251
*1441 FILLER_0_34_253
*1442 FILLER_0_34_264
*1443 FILLER_0_34_27
*1444 FILLER_0_34_278
*1445 FILLER_0_34_283
*1446 FILLER_0_34_29
*1447 FILLER_0_34_295
*1448 FILLER_0_34_3
*1449 FILLER_0_34_309
*1450 FILLER_0_34_317
*1451 FILLER_0_34_321
*1452 FILLER_0_34_328
*1453 FILLER_0_34_334
*1454 FILLER_0_34_41
*1455 FILLER_0_34_53
*1456 FILLER_0_34_65
*1457 FILLER_0_34_77
*1458 FILLER_0_34_83
*1459 FILLER_0_34_85
*1460 FILLER_0_34_97
*1461 FILLER_0_35_105
*1462 FILLER_0_35_111
*1463 FILLER_0_35_113
*1464 FILLER_0_35_125
*1465 FILLER_0_35_137
*1466 FILLER_0_35_149
*1467 FILLER_0_35_15
*1468 FILLER_0_35_157
*1469 FILLER_0_35_167
*1470 FILLER_0_35_178
*1471 FILLER_0_35_189
*1472 FILLER_0_35_201
*1473 FILLER_0_35_217
*1474 FILLER_0_35_221
*1475 FILLER_0_35_233
*1476 FILLER_0_35_254
*1477 FILLER_0_35_260
*1478 FILLER_0_35_266
*1479 FILLER_0_35_27
*1480 FILLER_0_35_275
*1481 FILLER_0_35_279
*1482 FILLER_0_35_281
*1483 FILLER_0_35_3
*1484 FILLER_0_35_311
*1485 FILLER_0_35_333
*1486 FILLER_0_35_337
*1487 FILLER_0_35_349
*1488 FILLER_0_35_39
*1489 FILLER_0_35_51
*1490 FILLER_0_35_55
*1491 FILLER_0_35_57
*1492 FILLER_0_35_69
*1493 FILLER_0_35_81
*1494 FILLER_0_35_93
*1495 FILLER_0_36_109
*1496 FILLER_0_36_121
*1497 FILLER_0_36_133
*1498 FILLER_0_36_139
*1499 FILLER_0_36_141
*1500 FILLER_0_36_15
*1501 FILLER_0_36_169
*1502 FILLER_0_36_177
*1503 FILLER_0_36_197
*1504 FILLER_0_36_205
*1505 FILLER_0_36_210
*1506 FILLER_0_36_218
*1507 FILLER_0_36_226
*1508 FILLER_0_36_232
*1509 FILLER_0_36_250
*1510 FILLER_0_36_253
*1511 FILLER_0_36_259
*1512 FILLER_0_36_27
*1513 FILLER_0_36_282
*1514 FILLER_0_36_29
*1515 FILLER_0_36_290
*1516 FILLER_0_36_296
*1517 FILLER_0_36_3
*1518 FILLER_0_36_309
*1519 FILLER_0_36_321
*1520 FILLER_0_36_329
*1521 FILLER_0_36_346
*1522 FILLER_0_36_350
*1523 FILLER_0_36_41
*1524 FILLER_0_36_53
*1525 FILLER_0_36_65
*1526 FILLER_0_36_77
*1527 FILLER_0_36_83
*1528 FILLER_0_36_85
*1529 FILLER_0_36_97
*1530 FILLER_0_37_105
*1531 FILLER_0_37_111
*1532 FILLER_0_37_113
*1533 FILLER_0_37_125
*1534 FILLER_0_37_137
*1535 FILLER_0_37_149
*1536 FILLER_0_37_15
*1537 FILLER_0_37_161
*1538 FILLER_0_37_167
*1539 FILLER_0_37_169
*1540 FILLER_0_37_181
*1541 FILLER_0_37_187
*1542 FILLER_0_37_199
*1543 FILLER_0_37_211
*1544 FILLER_0_37_215
*1545 FILLER_0_37_222
*1546 FILLER_0_37_228
*1547 FILLER_0_37_236
*1548 FILLER_0_37_245
*1549 FILLER_0_37_253
*1550 FILLER_0_37_260
*1551 FILLER_0_37_27
*1552 FILLER_0_37_272
*1553 FILLER_0_37_281
*1554 FILLER_0_37_3
*1555 FILLER_0_37_309
*1556 FILLER_0_37_321
*1557 FILLER_0_37_333
*1558 FILLER_0_37_337
*1559 FILLER_0_37_349
*1560 FILLER_0_37_39
*1561 FILLER_0_37_51
*1562 FILLER_0_37_55
*1563 FILLER_0_37_57
*1564 FILLER_0_37_69
*1565 FILLER_0_37_81
*1566 FILLER_0_37_93
*1567 FILLER_0_38_104
*1568 FILLER_0_38_110
*1569 FILLER_0_38_116
*1570 FILLER_0_38_122
*1571 FILLER_0_38_128
*1572 FILLER_0_38_134
*1573 FILLER_0_38_141
*1574 FILLER_0_38_146
*1575 FILLER_0_38_15
*1576 FILLER_0_38_167
*1577 FILLER_0_38_169
*1578 FILLER_0_38_180
*1579 FILLER_0_38_185
*1580 FILLER_0_38_191
*1581 FILLER_0_38_213
*1582 FILLER_0_38_221
*1583 FILLER_0_38_225
*1584 FILLER_0_38_253
*1585 FILLER_0_38_27
*1586 FILLER_0_38_284
*1587 FILLER_0_38_29
*1588 FILLER_0_38_3
*1589 FILLER_0_38_306
*1590 FILLER_0_38_315
*1591 FILLER_0_38_327
*1592 FILLER_0_38_335
*1593 FILLER_0_38_337
*1594 FILLER_0_38_349
*1595 FILLER_0_38_41
*1596 FILLER_0_38_53
*1597 FILLER_0_38_57
*1598 FILLER_0_38_68
*1599 FILLER_0_38_74
*1600 FILLER_0_38_80
*1601 FILLER_0_38_88
*1602 FILLER_0_38_92
*1603 FILLER_0_38_98
*1604 FILLER_0_3_105
*1605 FILLER_0_3_111
*1606 FILLER_0_3_113
*1607 FILLER_0_3_125
*1608 FILLER_0_3_137
*1609 FILLER_0_3_149
*1610 FILLER_0_3_15
*1611 FILLER_0_3_161
*1612 FILLER_0_3_167
*1613 FILLER_0_3_169
*1614 FILLER_0_3_181
*1615 FILLER_0_3_193
*1616 FILLER_0_3_205
*1617 FILLER_0_3_217
*1618 FILLER_0_3_223
*1619 FILLER_0_3_225
*1620 FILLER_0_3_237
*1621 FILLER_0_3_249
*1622 FILLER_0_3_261
*1623 FILLER_0_3_27
*1624 FILLER_0_3_273