*SPEF "ieee 1481-1999"
*DESIGN "tt_um_wokwi_379764885531576321"
*DATE "11:11:11 Fri 11 11, 1111"
*VENDOR "OpenRCX"
*PROGRAM "Parallel Extraction"
*VERSION "1.0"
*DESIGN_FLOW "NAME_SCOPE LOCAL" "PIN_CAP NONE"
*DIVIDER /
*DELIMITER :
*BUS_DELIMITER []
*T_UNIT 1 NS
*C_UNIT 1 PF
*R_UNIT 1 OHM
*L_UNIT 1 HENRY

*NAME_MAP
*3 clk
*4 ena
*5 rst_n
*6 ui_in[0]
*7 ui_in[1]
*8 ui_in[2]
*9 ui_in[3]
*10 ui_in[4]
*11 ui_in[5]
*12 ui_in[6]
*13 ui_in[7]
*14 uio_in[0]
*15 uio_in[1]
*16 uio_in[2]
*17 uio_in[3]
*18 uio_in[4]
*19 uio_in[5]
*20 uio_in[6]
*21 uio_in[7]
*22 net2
*23 net3
*24 net4
*25 net5
*26 net6
*27 net7
*28 net8
*29 net9
*30 net10
*31 net11
*32 net12
*33 net13
*34 net14
*35 net15
*36 net16
*37 net17
*38 uo_out[0]
*39 uo_out[1]
*40 uo_out[2]
*41 uo_out[3]
*42 uo_out[4]
*43 uo_out[5]
*44 uo_out[6]
*45 net18
*46 _00_
*47 _01_
*48 _02_
*49 _03_
*50 _04_
*51 _05_
*52 _06_
*53 _07_
*54 _08_
*55 _09_
*56 _10_
*57 _11_
*58 and1\.out
*59 and10\.b
*60 and11\.b
*61 and13\.b
*62 and14\.a
*63 and2\.out
*64 and3\.out
*65 and4\.out
*66 clknet_0_clk
*67 clknet_1_0__leaf_clk
*68 clknet_1_1__leaf_clk
*69 net1
*70 net19
*71 net20
*72 net21
*73 net22
*74 not11\.out
*75 not12\.out
*76 not13\.out
*77 not14\.out
*78 not15\.out
*79 or6\.out
*80 or7\.out
*81 FILLER_0_0_109
*82 FILLER_0_0_113
*83 FILLER_0_0_125
*84 FILLER_0_0_137
*85 FILLER_0_0_141
*86 FILLER_0_0_15
*87 FILLER_0_0_153
*88 FILLER_0_0_165
*89 FILLER_0_0_169
*90 FILLER_0_0_181
*91 FILLER_0_0_193
*92 FILLER_0_0_197
*93 FILLER_0_0_209
*94 FILLER_0_0_221
*95 FILLER_0_0_225
*96 FILLER_0_0_237
*97 FILLER_0_0_249
*98 FILLER_0_0_253
*99 FILLER_0_0_265
*100 FILLER_0_0_27
*101 FILLER_0_0_277
*102 FILLER_0_0_281
*103 FILLER_0_0_29
*104 FILLER_0_0_293
*105 FILLER_0_0_3
*106 FILLER_0_0_305
*107 FILLER_0_0_309
*108 FILLER_0_0_321
*109 FILLER_0_0_333
*110 FILLER_0_0_337
*111 FILLER_0_0_349
*112 FILLER_0_0_41
*113 FILLER_0_0_53
*114 FILLER_0_0_57
*115 FILLER_0_0_69
*116 FILLER_0_0_81
*117 FILLER_0_0_85
*118 FILLER_0_0_97
*119 FILLER_0_10_109
*120 FILLER_0_10_121
*121 FILLER_0_10_133
*122 FILLER_0_10_139
*123 FILLER_0_10_141
*124 FILLER_0_10_15
*125 FILLER_0_10_153
*126 FILLER_0_10_165
*127 FILLER_0_10_177
*128 FILLER_0_10_189
*129 FILLER_0_10_195
*130 FILLER_0_10_197
*131 FILLER_0_10_209
*132 FILLER_0_10_221
*133 FILLER_0_10_233
*134 FILLER_0_10_245
*135 FILLER_0_10_251
*136 FILLER_0_10_253
*137 FILLER_0_10_265
*138 FILLER_0_10_27
*139 FILLER_0_10_277
*140 FILLER_0_10_289
*141 FILLER_0_10_29
*142 FILLER_0_10_3
*143 FILLER_0_10_301
*144 FILLER_0_10_307
*145 FILLER_0_10_309
*146 FILLER_0_10_321
*147 FILLER_0_10_333
*148 FILLER_0_10_345
*149 FILLER_0_10_41
*150 FILLER_0_10_53
*151 FILLER_0_10_65
*152 FILLER_0_10_77
*153 FILLER_0_10_83
*154 FILLER_0_10_85
*155 FILLER_0_10_97
*156 FILLER_0_11_105
*157 FILLER_0_11_111
*158 FILLER_0_11_113
*159 FILLER_0_11_125
*160 FILLER_0_11_137
*161 FILLER_0_11_149
*162 FILLER_0_11_15
*163 FILLER_0_11_161
*164 FILLER_0_11_167
*165 FILLER_0_11_169
*166 FILLER_0_11_181
*167 FILLER_0_11_193
*168 FILLER_0_11_205
*169 FILLER_0_11_217
*170 FILLER_0_11_223
*171 FILLER_0_11_225
*172 FILLER_0_11_237
*173 FILLER_0_11_249
*174 FILLER_0_11_261
*175 FILLER_0_11_27
*176 FILLER_0_11_273
*177 FILLER_0_11_279
*178 FILLER_0_11_281
*179 FILLER_0_11_293
*180 FILLER_0_11_3
*181 FILLER_0_11_305
*182 FILLER_0_11_317
*183 FILLER_0_11_329
*184 FILLER_0_11_335
*185 FILLER_0_11_337
*186 FILLER_0_11_349
*187 FILLER_0_11_39
*188 FILLER_0_11_51
*189 FILLER_0_11_55
*190 FILLER_0_11_57
*191 FILLER_0_11_69
*192 FILLER_0_11_81
*193 FILLER_0_11_93
*194 FILLER_0_12_109
*195 FILLER_0_12_121
*196 FILLER_0_12_133
*197 FILLER_0_12_139
*198 FILLER_0_12_141
*199 FILLER_0_12_15
*200 FILLER_0_12_153
*201 FILLER_0_12_165
*202 FILLER_0_12_177
*203 FILLER_0_12_189
*204 FILLER_0_12_195
*205 FILLER_0_12_197
*206 FILLER_0_12_209
*207 FILLER_0_12_221
*208 FILLER_0_12_233
*209 FILLER_0_12_245
*210 FILLER_0_12_251
*211 FILLER_0_12_253
*212 FILLER_0_12_265
*213 FILLER_0_12_27
*214 FILLER_0_12_277
*215 FILLER_0_12_289
*216 FILLER_0_12_29
*217 FILLER_0_12_3
*218 FILLER_0_12_301
*219 FILLER_0_12_307
*220 FILLER_0_12_309
*221 FILLER_0_12_321
*222 FILLER_0_12_333
*223 FILLER_0_12_345
*224 FILLER_0_12_41
*225 FILLER_0_12_53
*226 FILLER_0_12_65
*227 FILLER_0_12_77
*228 FILLER_0_12_83
*229 FILLER_0_12_85
*230 FILLER_0_12_97
*231 FILLER_0_13_105
*232 FILLER_0_13_111
*233 FILLER_0_13_113
*234 FILLER_0_13_125
*235 FILLER_0_13_137
*236 FILLER_0_13_149
*237 FILLER_0_13_15
*238 FILLER_0_13_161
*239 FILLER_0_13_167
*240 FILLER_0_13_169
*241 FILLER_0_13_181
*242 FILLER_0_13_193
*243 FILLER_0_13_205
*244 FILLER_0_13_217
*245 FILLER_0_13_223
*246 FILLER_0_13_225
*247 FILLER_0_13_237
*248 FILLER_0_13_249
*249 FILLER_0_13_261
*250 FILLER_0_13_27
*251 FILLER_0_13_273
*252 FILLER_0_13_279
*253 FILLER_0_13_281
*254 FILLER_0_13_293
*255 FILLER_0_13_3
*256 FILLER_0_13_305
*257 FILLER_0_13_317
*258 FILLER_0_13_329
*259 FILLER_0_13_335
*260 FILLER_0_13_337
*261 FILLER_0_13_349
*262 FILLER_0_13_39
*263 FILLER_0_13_51
*264 FILLER_0_13_55
*265 FILLER_0_13_57
*266 FILLER_0_13_69
*267 FILLER_0_13_81
*268 FILLER_0_13_93
*269 FILLER_0_14_109
*270 FILLER_0_14_121
*271 FILLER_0_14_133
*272 FILLER_0_14_139
*273 FILLER_0_14_141
*274 FILLER_0_14_15
*275 FILLER_0_14_153
*276 FILLER_0_14_165
*277 FILLER_0_14_177
*278 FILLER_0_14_189
*279 FILLER_0_14_195
*280 FILLER_0_14_197
*281 FILLER_0_14_209
*282 FILLER_0_14_221
*283 FILLER_0_14_233
*284 FILLER_0_14_245
*285 FILLER_0_14_251
*286 FILLER_0_14_253
*287 FILLER_0_14_265
*288 FILLER_0_14_27
*289 FILLER_0_14_277
*290 FILLER_0_14_289
*291 FILLER_0_14_29
*292 FILLER_0_14_3
*293 FILLER_0_14_301
*294 FILLER_0_14_307
*295 FILLER_0_14_309
*296 FILLER_0_14_321
*297 FILLER_0_14_333
*298 FILLER_0_14_345
*299 FILLER_0_14_41
*300 FILLER_0_14_53
*301 FILLER_0_14_65
*302 FILLER_0_14_77
*303 FILLER_0_14_83
*304 FILLER_0_14_85
*305 FILLER_0_14_97
*306 FILLER_0_15_105
*307 FILLER_0_15_111
*308 FILLER_0_15_113
*309 FILLER_0_15_125
*310 FILLER_0_15_137
*311 FILLER_0_15_149
*312 FILLER_0_15_15
*313 FILLER_0_15_161
*314 FILLER_0_15_167
*315 FILLER_0_15_169
*316 FILLER_0_15_181
*317 FILLER_0_15_193
*318 FILLER_0_15_205
*319 FILLER_0_15_217
*320 FILLER_0_15_223
*321 FILLER_0_15_225
*322 FILLER_0_15_237
*323 FILLER_0_15_249
*324 FILLER_0_15_261
*325 FILLER_0_15_27
*326 FILLER_0_15_273
*327 FILLER_0_15_279
*328 FILLER_0_15_281
*329 FILLER_0_15_293
*330 FILLER_0_15_3
*331 FILLER_0_15_305
*332 FILLER_0_15_317
*333 FILLER_0_15_329
*334 FILLER_0_15_335
*335 FILLER_0_15_337
*336 FILLER_0_15_349
*337 FILLER_0_15_39
*338 FILLER_0_15_51
*339 FILLER_0_15_55
*340 FILLER_0_15_57
*341 FILLER_0_15_69
*342 FILLER_0_15_81
*343 FILLER_0_15_93
*344 FILLER_0_16_109
*345 FILLER_0_16_121
*346 FILLER_0_16_133
*347 FILLER_0_16_139
*348 FILLER_0_16_141
*349 FILLER_0_16_15
*350 FILLER_0_16_153
*351 FILLER_0_16_165
*352 FILLER_0_16_177
*353 FILLER_0_16_189
*354 FILLER_0_16_195
*355 FILLER_0_16_197
*356 FILLER_0_16_209
*357 FILLER_0_16_221
*358 FILLER_0_16_233
*359 FILLER_0_16_245
*360 FILLER_0_16_251
*361 FILLER_0_16_253
*362 FILLER_0_16_265
*363 FILLER_0_16_27
*364 FILLER_0_16_277
*365 FILLER_0_16_289
*366 FILLER_0_16_29
*367 FILLER_0_16_3
*368 FILLER_0_16_301
*369 FILLER_0_16_307
*370 FILLER_0_16_309
*371 FILLER_0_16_321
*372 FILLER_0_16_333
*373 FILLER_0_16_345
*374 FILLER_0_16_41
*375 FILLER_0_16_53
*376 FILLER_0_16_65
*377 FILLER_0_16_77
*378 FILLER_0_16_83
*379 FILLER_0_16_85
*380 FILLER_0_16_97
*381 FILLER_0_17_105
*382 FILLER_0_17_111
*383 FILLER_0_17_113
*384 FILLER_0_17_125
*385 FILLER_0_17_137
*386 FILLER_0_17_149
*387 FILLER_0_17_15
*388 FILLER_0_17_161
*389 FILLER_0_17_167
*390 FILLER_0_17_169
*391 FILLER_0_17_181
*392 FILLER_0_17_193
*393 FILLER_0_17_205
*394 FILLER_0_17_217
*395 FILLER_0_17_223
*396 FILLER_0_17_225
*397 FILLER_0_17_237
*398 FILLER_0_17_249
*399 FILLER_0_17_261
*400 FILLER_0_17_27
*401 FILLER_0_17_273
*402 FILLER_0_17_279
*403 FILLER_0_17_281
*404 FILLER_0_17_293
*405 FILLER_0_17_3
*406 FILLER_0_17_305
*407 FILLER_0_17_317
*408 FILLER_0_17_329
*409 FILLER_0_17_335
*410 FILLER_0_17_337
*411 FILLER_0_17_349
*412 FILLER_0_17_39
*413 FILLER_0_17_51
*414 FILLER_0_17_55
*415 FILLER_0_17_57
*416 FILLER_0_17_69
*417 FILLER_0_17_81
*418 FILLER_0_17_93
*419 FILLER_0_18_109
*420 FILLER_0_18_121
*421 FILLER_0_18_133
*422 FILLER_0_18_139
*423 FILLER_0_18_141
*424 FILLER_0_18_15
*425 FILLER_0_18_153
*426 FILLER_0_18_165
*427 FILLER_0_18_177
*428 FILLER_0_18_189
*429 FILLER_0_18_195
*430 FILLER_0_18_197
*431 FILLER_0_18_209
*432 FILLER_0_18_221
*433 FILLER_0_18_233
*434 FILLER_0_18_245
*435 FILLER_0_18_251
*436 FILLER_0_18_253
*437 FILLER_0_18_265
*438 FILLER_0_18_27
*439 FILLER_0_18_277
*440 FILLER_0_18_289
*441 FILLER_0_18_29
*442 FILLER_0_18_3
*443 FILLER_0_18_301
*444 FILLER_0_18_307
*445 FILLER_0_18_309
*446 FILLER_0_18_321
*447 FILLER_0_18_333
*448 FILLER_0_18_345
*449 FILLER_0_18_41
*450 FILLER_0_18_53
*451 FILLER_0_18_65
*452 FILLER_0_18_77
*453 FILLER_0_18_83
*454 FILLER_0_18_85
*455 FILLER_0_18_97
*456 FILLER_0_19_105
*457 FILLER_0_19_111
*458 FILLER_0_19_113
*459 FILLER_0_19_125
*460 FILLER_0_19_137
*461 FILLER_0_19_149
*462 FILLER_0_19_15
*463 FILLER_0_19_161
*464 FILLER_0_19_167
*465 FILLER_0_19_169
*466 FILLER_0_19_181
*467 FILLER_0_19_193
*468 FILLER_0_19_205
*469 FILLER_0_19_217
*470 FILLER_0_19_223
*471 FILLER_0_19_225
*472 FILLER_0_19_237
*473 FILLER_0_19_249
*474 FILLER_0_19_261
*475 FILLER_0_19_27
*476 FILLER_0_19_273
*477 FILLER_0_19_279
*478 FILLER_0_19_281
*479 FILLER_0_19_293
*480 FILLER_0_19_3
*481 FILLER_0_19_305
*482 FILLER_0_19_317
*483 FILLER_0_19_329
*484 FILLER_0_19_335
*485 FILLER_0_19_337
*486 FILLER_0_19_349
*487 FILLER_0_19_39
*488 FILLER_0_19_51
*489 FILLER_0_19_55
*490 FILLER_0_19_57
*491 FILLER_0_19_69
*492 FILLER_0_19_81
*493 FILLER_0_19_93
*494 FILLER_0_1_105
*495 FILLER_0_1_111
*496 FILLER_0_1_113
*497 FILLER_0_1_125
*498 FILLER_0_1_137
*499 FILLER_0_1_149
*500 FILLER_0_1_15
*501 FILLER_0_1_161
*502 FILLER_0_1_167
*503 FILLER_0_1_169
*504 FILLER_0_1_181
*505 FILLER_0_1_193
*506 FILLER_0_1_205
*507 FILLER_0_1_217
*508 FILLER_0_1_223
*509 FILLER_0_1_225
*510 FILLER_0_1_237
*511 FILLER_0_1_249
*512 FILLER_0_1_261
*513 FILLER_0_1_27
*514 FILLER_0_1_273
*515 FILLER_0_1_279
*516 FILLER_0_1_281
*517 FILLER_0_1_293
*518 FILLER_0_1_3
*519 FILLER_0_1_305
*520 FILLER_0_1_317
*521 FILLER_0_1_329
*522 FILLER_0_1_335
*523 FILLER_0_1_337
*524 FILLER_0_1_349
*525 FILLER_0_1_39
*526 FILLER_0_1_51
*527 FILLER_0_1_55
*528 FILLER_0_1_57
*529 FILLER_0_1_69
*530 FILLER_0_1_81
*531 FILLER_0_1_93
*532 FILLER_0_20_109
*533 FILLER_0_20_121
*534 FILLER_0_20_133
*535 FILLER_0_20_139
*536 FILLER_0_20_141
*537 FILLER_0_20_15
*538 FILLER_0_20_153
*539 FILLER_0_20_165
*540 FILLER_0_20_177
*541 FILLER_0_20_189
*542 FILLER_0_20_195
*543 FILLER_0_20_197
*544 FILLER_0_20_209
*545 FILLER_0_20_221
*546 FILLER_0_20_233
*547 FILLER_0_20_245
*548 FILLER_0_20_251
*549 FILLER_0_20_253
*550 FILLER_0_20_265
*551 FILLER_0_20_27
*552 FILLER_0_20_277
*553 FILLER_0_20_289
*554 FILLER_0_20_29
*555 FILLER_0_20_3
*556 FILLER_0_20_301
*557 FILLER_0_20_307
*558 FILLER_0_20_309
*559 FILLER_0_20_321
*560 FILLER_0_20_333
*561 FILLER_0_20_345
*562 FILLER_0_20_41
*563 FILLER_0_20_53
*564 FILLER_0_20_65
*565 FILLER_0_20_77
*566 FILLER_0_20_83
*567 FILLER_0_20_85
*568 FILLER_0_20_97
*569 FILLER_0_21_105
*570 FILLER_0_21_111
*571 FILLER_0_21_113
*572 FILLER_0_21_125
*573 FILLER_0_21_137
*574 FILLER_0_21_149
*575 FILLER_0_21_15
*576 FILLER_0_21_161
*577 FILLER_0_21_167
*578 FILLER_0_21_169
*579 FILLER_0_21_181
*580 FILLER_0_21_193
*581 FILLER_0_21_205
*582 FILLER_0_21_217
*583 FILLER_0_21_223
*584 FILLER_0_21_225
*585 FILLER_0_21_237
*586 FILLER_0_21_249
*587 FILLER_0_21_261
*588 FILLER_0_21_27
*589 FILLER_0_21_273
*590 FILLER_0_21_279
*591 FILLER_0_21_281
*592 FILLER_0_21_293
*593 FILLER_0_21_3
*594 FILLER_0_21_305
*595 FILLER_0_21_317
*596 FILLER_0_21_329
*597 FILLER_0_21_335
*598 FILLER_0_21_337
*599 FILLER_0_21_349
*600 FILLER_0_21_39
*601 FILLER_0_21_51
*602 FILLER_0_21_55
*603 FILLER_0_21_57
*604 FILLER_0_21_69
*605 FILLER_0_21_81
*606 FILLER_0_21_93
*607 FILLER_0_22_109
*608 FILLER_0_22_121
*609 FILLER_0_22_133
*610 FILLER_0_22_139
*611 FILLER_0_22_141
*612 FILLER_0_22_15
*613 FILLER_0_22_153
*614 FILLER_0_22_165
*615 FILLER_0_22_177
*616 FILLER_0_22_189
*617 FILLER_0_22_195
*618 FILLER_0_22_197
*619 FILLER_0_22_209
*620 FILLER_0_22_221
*621 FILLER_0_22_233
*622 FILLER_0_22_245
*623 FILLER_0_22_251
*624 FILLER_0_22_253
*625 FILLER_0_22_265
*626 FILLER_0_22_27
*627 FILLER_0_22_277
*628 FILLER_0_22_289
*629 FILLER_0_22_29
*630 FILLER_0_22_3
*631 FILLER_0_22_301
*632 FILLER_0_22_307
*633 FILLER_0_22_309
*634 FILLER_0_22_321
*635 FILLER_0_22_333
*636 FILLER_0_22_345
*637 FILLER_0_22_41
*638 FILLER_0_22_53
*639 FILLER_0_22_65
*640 FILLER_0_22_77
*641 FILLER_0_22_83
*642 FILLER_0_22_85
*643 FILLER_0_22_97
*644 FILLER_0_23_105
*645 FILLER_0_23_111
*646 FILLER_0_23_113
*647 FILLER_0_23_125
*648 FILLER_0_23_137
*649 FILLER_0_23_149
*650 FILLER_0_23_15
*651 FILLER_0_23_161
*652 FILLER_0_23_167
*653 FILLER_0_23_169
*654 FILLER_0_23_181
*655 FILLER_0_23_193
*656 FILLER_0_23_205
*657 FILLER_0_23_217
*658 FILLER_0_23_223
*659 FILLER_0_23_225
*660 FILLER_0_23_237
*661 FILLER_0_23_249
*662 FILLER_0_23_261
*663 FILLER_0_23_27
*664 FILLER_0_23_273
*665 FILLER_0_23_279
*666 FILLER_0_23_281
*667 FILLER_0_23_293
*668 FILLER_0_23_3
*669 FILLER_0_23_305
*670 FILLER_0_23_317
*671 FILLER_0_23_329
*672 FILLER_0_23_335
*673 FILLER_0_23_337
*674 FILLER_0_23_349
*675 FILLER_0_23_39
*676 FILLER_0_23_51
*677 FILLER_0_23_55
*678 FILLER_0_23_57
*679 FILLER_0_23_69
*680 FILLER_0_23_81
*681 FILLER_0_23_93
*682 FILLER_0_24_109
*683 FILLER_0_24_121
*684 FILLER_0_24_133
*685 FILLER_0_24_139
*686 FILLER_0_24_141
*687 FILLER_0_24_15
*688 FILLER_0_24_153
*689 FILLER_0_24_165
*690 FILLER_0_24_177
*691 FILLER_0_24_189
*692 FILLER_0_24_195
*693 FILLER_0_24_197
*694 FILLER_0_24_209
*695 FILLER_0_24_221
*696 FILLER_0_24_233
*697 FILLER_0_24_245
*698 FILLER_0_24_251
*699 FILLER_0_24_253
*700 FILLER_0_24_265
*701 FILLER_0_24_27
*702 FILLER_0_24_277
*703 FILLER_0_24_289
*704 FILLER_0_24_29
*705 FILLER_0_24_3
*706 FILLER_0_24_301
*707 FILLER_0_24_307
*708 FILLER_0_24_309
*709 FILLER_0_24_321
*710 FILLER_0_24_333
*711 FILLER_0_24_345
*712 FILLER_0_24_41
*713 FILLER_0_24_53
*714 FILLER_0_24_65
*715 FILLER_0_24_77
*716 FILLER_0_24_83
*717 FILLER_0_24_85
*718 FILLER_0_24_97
*719 FILLER_0_25_105
*720 FILLER_0_25_111
*721 FILLER_0_25_113
*722 FILLER_0_25_125
*723 FILLER_0_25_137
*724 FILLER_0_25_149
*725 FILLER_0_25_15
*726 FILLER_0_25_161
*727 FILLER_0_25_167
*728 FILLER_0_25_169
*729 FILLER_0_25_181
*730 FILLER_0_25_193
*731 FILLER_0_25_205
*732 FILLER_0_25_217
*733 FILLER_0_25_223
*734 FILLER_0_25_225
*735 FILLER_0_25_237
*736 FILLER_0_25_249
*737 FILLER_0_25_261
*738 FILLER_0_25_27
*739 FILLER_0_25_273
*740 FILLER_0_25_279
*741 FILLER_0_25_281
*742 FILLER_0_25_293
*743 FILLER_0_25_3
*744 FILLER_0_25_305
*745 FILLER_0_25_317
*746 FILLER_0_25_329
*747 FILLER_0_25_335
*748 FILLER_0_25_337
*749 FILLER_0_25_349
*750 FILLER_0_25_39
*751 FILLER_0_25_51
*752 FILLER_0_25_55
*753 FILLER_0_25_57
*754 FILLER_0_25_69
*755 FILLER_0_25_81
*756 FILLER_0_25_93
*757 FILLER_0_26_109
*758 FILLER_0_26_121
*759 FILLER_0_26_133
*760 FILLER_0_26_139
*761 FILLER_0_26_141
*762 FILLER_0_26_15
*763 FILLER_0_26_153
*764 FILLER_0_26_165
*765 FILLER_0_26_177
*766 FILLER_0_26_189
*767 FILLER_0_26_195
*768 FILLER_0_26_197
*769 FILLER_0_26_209
*770 FILLER_0_26_221
*771 FILLER_0_26_233
*772 FILLER_0_26_245
*773 FILLER_0_26_251
*774 FILLER_0_26_253
*775 FILLER_0_26_265
*776 FILLER_0_26_27
*777 FILLER_0_26_277
*778 FILLER_0_26_289
*779 FILLER_0_26_29
*780 FILLER_0_26_3
*781 FILLER_0_26_301
*782 FILLER_0_26_307
*783 FILLER_0_26_309
*784 FILLER_0_26_321
*785 FILLER_0_26_333
*786 FILLER_0_26_345
*787 FILLER_0_26_41
*788 FILLER_0_26_53
*789 FILLER_0_26_65
*790 FILLER_0_26_77
*791 FILLER_0_26_83
*792 FILLER_0_26_85
*793 FILLER_0_26_97
*794 FILLER_0_27_105
*795 FILLER_0_27_111
*796 FILLER_0_27_113
*797 FILLER_0_27_125
*798 FILLER_0_27_137
*799 FILLER_0_27_149
*800 FILLER_0_27_15
*801 FILLER_0_27_161
*802 FILLER_0_27_167
*803 FILLER_0_27_169
*804 FILLER_0_27_181
*805 FILLER_0_27_193
*806 FILLER_0_27_205
*807 FILLER_0_27_217
*808 FILLER_0_27_223
*809 FILLER_0_27_225
*810 FILLER_0_27_237
*811 FILLER_0_27_249
*812 FILLER_0_27_261
*813 FILLER_0_27_27
*814 FILLER_0_27_273
*815 FILLER_0_27_279
*816 FILLER_0_27_281
*817 FILLER_0_27_293
*818 FILLER_0_27_3
*819 FILLER_0_27_305
*820 FILLER_0_27_317
*821 FILLER_0_27_329
*822 FILLER_0_27_335
*823 FILLER_0_27_337
*824 FILLER_0_27_349
*825 FILLER_0_27_39
*826 FILLER_0_27_51
*827 FILLER_0_27_55
*828 FILLER_0_27_57
*829 FILLER_0_27_69
*830 FILLER_0_27_81
*831 FILLER_0_27_93
*832 FILLER_0_28_109
*833 FILLER_0_28_121
*834 FILLER_0_28_133
*835 FILLER_0_28_139
*836 FILLER_0_28_141
*837 FILLER_0_28_15
*838 FILLER_0_28_153
*839 FILLER_0_28_165
*840 FILLER_0_28_177
*841 FILLER_0_28_189
*842 FILLER_0_28_195
*843 FILLER_0_28_197
*844 FILLER_0_28_209
*845 FILLER_0_28_221
*846 FILLER_0_28_233
*847 FILLER_0_28_245
*848 FILLER_0_28_251
*849 FILLER_0_28_253
*850 FILLER_0_28_265
*851 FILLER_0_28_27
*852 FILLER_0_28_277
*853 FILLER_0_28_289
*854 FILLER_0_28_29
*855 FILLER_0_28_3
*856 FILLER_0_28_301
*857 FILLER_0_28_307
*858 FILLER_0_28_309
*859 FILLER_0_28_321
*860 FILLER_0_28_333
*861 FILLER_0_28_345
*862 FILLER_0_28_41
*863 FILLER_0_28_53
*864 FILLER_0_28_65
*865 FILLER_0_28_77
*866 FILLER_0_28_83
*867 FILLER_0_28_85
*868 FILLER_0_28_97
*869 FILLER_0_29_105
*870 FILLER_0_29_111
*871 FILLER_0_29_113
*872 FILLER_0_29_125
*873 FILLER_0_29_137
*874 FILLER_0_29_149
*875 FILLER_0_29_15
*876 FILLER_0_29_161
*877 FILLER_0_29_167
*878 FILLER_0_29_169
*879 FILLER_0_29_181
*880 FILLER_0_29_193
*881 FILLER_0_29_205
*882 FILLER_0_29_217
*883 FILLER_0_29_223
*884 FILLER_0_29_225
*885 FILLER_0_29_237
*886 FILLER_0_29_249
*887 FILLER_0_29_261
*888 FILLER_0_29_27
*889 FILLER_0_29_273
*890 FILLER_0_29_279
*891 FILLER_0_29_281
*892 FILLER_0_29_293
*893 FILLER_0_29_3
*894 FILLER_0_29_305
*895 FILLER_0_29_317
*896 FILLER_0_29_329
*897 FILLER_0_29_335
*898 FILLER_0_29_337
*899 FILLER_0_29_349
*900 FILLER_0_29_39
*901 FILLER_0_29_51
*902 FILLER_0_29_55
*903 FILLER_0_29_57
*904 FILLER_0_29_69
*905 FILLER_0_29_81
*906 FILLER_0_29_93
*907 FILLER_0_2_109
*908 FILLER_0_2_121
*909 FILLER_0_2_133
*910 FILLER_0_2_139
*911 FILLER_0_2_141
*912 FILLER_0_2_15
*913 FILLER_0_2_153
*914 FILLER_0_2_165
*915 FILLER_0_2_177
*916 FILLER_0_2_189
*917 FILLER_0_2_195
*918 FILLER_0_2_197
*919 FILLER_0_2_209
*920 FILLER_0_2_221
*921 FILLER_0_2_233
*922 FILLER_0_2_245
*923 FILLER_0_2_251
*924 FILLER_0_2_253
*925 FILLER_0_2_265
*926 FILLER_0_2_27
*927 FILLER_0_2_277
*928 FILLER_0_2_289
*929 FILLER_0_2_29
*930 FILLER_0_2_3
*931 FILLER_0_2_301
*932 FILLER_0_2_307
*933 FILLER_0_2_309
*934 FILLER_0_2_321
*935 FILLER_0_2_333
*936 FILLER_0_2_345
*937 FILLER_0_2_41
*938 FILLER_0_2_53
*939 FILLER_0_2_65
*940 FILLER_0_2_77
*941 FILLER_0_2_83
*942 FILLER_0_2_85
*943 FILLER_0_2_97
*944 FILLER_0_30_109
*945 FILLER_0_30_121
*946 FILLER_0_30_133
*947 FILLER_0_30_139
*948 FILLER_0_30_141
*949 FILLER_0_30_15
*950 FILLER_0_30_153
*951 FILLER_0_30_165
*952 FILLER_0_30_177
*953 FILLER_0_30_189
*954 FILLER_0_30_195
*955 FILLER_0_30_197
*956 FILLER_0_30_209
*957 FILLER_0_30_221
*958 FILLER_0_30_233
*959 FILLER_0_30_245
*960 FILLER_0_30_251
*961 FILLER_0_30_253
*962 FILLER_0_30_265
*963 FILLER_0_30_27
*964 FILLER_0_30_277
*965 FILLER_0_30_289
*966 FILLER_0_30_29
*967 FILLER_0_30_3
*968 FILLER_0_30_301
*969 FILLER_0_30_307
*970 FILLER_0_30_309
*971 FILLER_0_30_321
*972 FILLER_0_30_333
*973 FILLER_0_30_345
*974 FILLER_0_30_41
*975 FILLER_0_30_53
*976 FILLER_0_30_65
*977 FILLER_0_30_77
*978 FILLER_0_30_83
*979 FILLER_0_30_85
*980 FILLER_0_30_97
*981 FILLER_0_31_105
*982 FILLER_0_31_111
*983 FILLER_0_31_113
*984 FILLER_0_31_125
*985 FILLER_0_31_137
*986 FILLER_0_31_149
*987 FILLER_0_31_15
*988 FILLER_0_31_161
*989 FILLER_0_31_167
*990 FILLER_0_31_169
*991 FILLER_0_31_181
*992 FILLER_0_31_193
*993 FILLER_0_31_205
*994 FILLER_0_31_217
*995 FILLER_0_31_223
*996 FILLER_0_31_225
*997 FILLER_0_31_237
*998 FILLER_0_31_249
*999 FILLER_0_31_261
*1000 FILLER_0_31_27
*1001 FILLER_0_31_273
*1002 FILLER_0_31_279
*1003 FILLER_0_31_281
*1004 FILLER_0_31_293
*1005 FILLER_0_31_3
*1006 FILLER_0_31_305
*1007 FILLER_0_31_317
*1008 FILLER_0_31_329
*1009 FILLER_0_31_335
*1010 FILLER_0_31_337
*1011 FILLER_0_31_349
*1012 FILLER_0_31_39
*1013 FILLER_0_31_51
*1014 FILLER_0_31_55
*1015 FILLER_0_31_57
*1016 FILLER_0_31_69
*1017 FILLER_0_31_81
*1018 FILLER_0_31_93
*1019 FILLER_0_32_109
*1020 FILLER_0_32_121
*1021 FILLER_0_32_133
*1022 FILLER_0_32_139
*1023 FILLER_0_32_141
*1024 FILLER_0_32_15
*1025 FILLER_0_32_153
*1026 FILLER_0_32_165
*1027 FILLER_0_32_177
*1028 FILLER_0_32_189
*1029 FILLER_0_32_195
*1030 FILLER_0_32_197
*1031 FILLER_0_32_209
*1032 FILLER_0_32_221
*1033 FILLER_0_32_233
*1034 FILLER_0_32_245
*1035 FILLER_0_32_251
*1036 FILLER_0_32_253
*1037 FILLER_0_32_265
*1038 FILLER_0_32_27
*1039 FILLER_0_32_277
*1040 FILLER_0_32_289
*1041 FILLER_0_32_29
*1042 FILLER_0_32_3
*1043 FILLER_0_32_301
*1044 FILLER_0_32_307
*1045 FILLER_0_32_309
*1046 FILLER_0_32_321
*1047 FILLER_0_32_333
*1048 FILLER_0_32_345
*1049 FILLER_0_32_41
*1050 FILLER_0_32_53
*1051 FILLER_0_32_65
*1052 FILLER_0_32_77
*1053 FILLER_0_32_83
*1054 FILLER_0_32_85
*1055 FILLER_0_32_97
*1056 FILLER_0_33_105
*1057 FILLER_0_33_111
*1058 FILLER_0_33_113
*1059 FILLER_0_33_125
*1060 FILLER_0_33_137
*1061 FILLER_0_33_149
*1062 FILLER_0_33_15
*1063 FILLER_0_33_161
*1064 FILLER_0_33_167
*1065 FILLER_0_33_169
*1066 FILLER_0_33_181
*1067 FILLER_0_33_193
*1068 FILLER_0_33_205
*1069 FILLER_0_33_217
*1070 FILLER_0_33_223
*1071 FILLER_0_33_225
*1072 FILLER_0_33_237
*1073 FILLER_0_33_249
*1074 FILLER_0_33_261
*1075 FILLER_0_33_27
*1076 FILLER_0_33_273
*1077 FILLER_0_33_279
*1078 FILLER_0_33_281
*1079 FILLER_0_33_293
*1080 FILLER_0_33_3
*1081 FILLER_0_33_305
*1082 FILLER_0_33_317
*1083 FILLER_0_33_329
*1084 FILLER_0_33_335
*1085 FILLER_0_33_337
*1086 FILLER_0_33_349
*1087 FILLER_0_33_39
*1088 FILLER_0_33_51
*1089 FILLER_0_33_55
*1090 FILLER_0_33_57
*1091 FILLER_0_33_69
*1092 FILLER_0_33_81
*1093 FILLER_0_33_93
*1094 FILLER_0_34_109
*1095 FILLER_0_34_121
*1096 FILLER_0_34_133
*1097 FILLER_0_34_139
*1098 FILLER_0_34_141
*1099 FILLER_0_34_15
*1100 FILLER_0_34_153
*1101 FILLER_0_34_165
*1102 FILLER_0_34_177
*1103 FILLER_0_34_189
*1104 FILLER_0_34_195
*1105 FILLER_0_34_197
*1106 FILLER_0_34_221
*1107 FILLER_0_34_233
*1108 FILLER_0_34_245
*1109 FILLER_0_34_251
*1110 FILLER_0_34_261
*1111 FILLER_0_34_27
*1112 FILLER_0_34_273
*1113 FILLER_0_34_285
*1114 FILLER_0_34_29
*1115 FILLER_0_34_297
*1116 FILLER_0_34_3
*1117 FILLER_0_34_305
*1118 FILLER_0_34_309
*1119 FILLER_0_34_321
*1120 FILLER_0_34_333
*1121 FILLER_0_34_345
*1122 FILLER_0_34_41
*1123 FILLER_0_34_53
*1124 FILLER_0_34_65
*1125 FILLER_0_34_77
*1126 FILLER_0_34_83
*1127 FILLER_0_34_85
*1128 FILLER_0_34_97
*1129 FILLER_0_35_105
*1130 FILLER_0_35_111
*1131 FILLER_0_35_113
*1132 FILLER_0_35_125
*1133 FILLER_0_35_137
*1134 FILLER_0_35_149
*1135 FILLER_0_35_15
*1136 FILLER_0_35_161
*1137 FILLER_0_35_167
*1138 FILLER_0_35_169
*1139 FILLER_0_35_181
*1140 FILLER_0_35_191
*1141 FILLER_0_35_203
*1142 FILLER_0_35_207
*1143 FILLER_0_35_214
*1144 FILLER_0_35_222
*1145 FILLER_0_35_241
*1146 FILLER_0_35_268
*1147 FILLER_0_35_27
*1148 FILLER_0_35_281
*1149 FILLER_0_35_293
*1150 FILLER_0_35_3
*1151 FILLER_0_35_305
*1152 FILLER_0_35_317
*1153 FILLER_0_35_329
*1154 FILLER_0_35_335
*1155 FILLER_0_35_337
*1156 FILLER_0_35_349
*1157 FILLER_0_35_39
*1158 FILLER_0_35_51
*1159 FILLER_0_35_55
*1160 FILLER_0_35_57
*1161 FILLER_0_35_69
*1162 FILLER_0_35_81
*1163 FILLER_0_35_93
*1164 FILLER_0_36_109
*1165 FILLER_0_36_121
*1166 FILLER_0_36_133
*1167 FILLER_0_36_139
*1168 FILLER_0_36_141
*1169 FILLER_0_36_15
*1170 FILLER_0_36_153
*1171 FILLER_0_36_165
*1172 FILLER_0_36_172
*1173 FILLER_0_36_180
*1174 FILLER_0_36_195
*1175 FILLER_0_36_200
*1176 FILLER_0_36_219
*1177 FILLER_0_36_269
*1178 FILLER_0_36_27
*1179 FILLER_0_36_281
*1180 FILLER_0_36_29
*1181 FILLER_0_36_293
*1182 FILLER_0_36_3
*1183 FILLER_0_36_305
*1184 FILLER_0_36_309
*1185 FILLER_0_36_321
*1186 FILLER_0_36_333
*1187 FILLER_0_36_345
*1188 FILLER_0_36_41
*1189 FILLER_0_36_53
*1190 FILLER_0_36_65
*1191 FILLER_0_36_77
*1192 FILLER_0_36_83
*1193 FILLER_0_36_85
*1194 FILLER_0_36_97
*1195 FILLER_0_37_105
*1196 FILLER_0_37_111
*1197 FILLER_0_37_113
*1198 FILLER_0_37_125
*1199 FILLER_0_37_137
*1200 FILLER_0_37_149
*1201 FILLER_0_37_15
*1202 FILLER_0_37_161
*1203 FILLER_0_37_167
*1204 FILLER_0_37_176
*1205 FILLER_0_37_184
*1206 FILLER_0_37_206
*1207 FILLER_0_37_222
*1208 FILLER_0_37_249
*1209 FILLER_0_37_253
*1210 FILLER_0_37_27
*1211 FILLER_0_37_274
*1212 FILLER_0_37_281
*1213 FILLER_0_37_293
*1214 FILLER_0_37_3
*1215 FILLER_0_37_305
*1216 FILLER_0_37_317
*1217 FILLER_0_37_329
*1218 FILLER_0_37_335
*1219 FILLER_0_37_337
*1220 FILLER_0_37_349
*1221 FILLER_0_37_39
*1222 FILLER_0_37_51
*1223 FILLER_0_37_55
*1224 FILLER_0_37_57
*1225 FILLER_0_37_69
*1226 FILLER_0_37_81
*1227 FILLER_0_37_93
*1228 FILLER_0_38_104
*1229 FILLER_0_38_110
*1230 FILLER_0_38_116
*1231 FILLER_0_38_122
*1232 FILLER_0_38_128
*1233 FILLER_0_38_134
*1234 FILLER_0_38_141
*1235 FILLER_0_38_146
*1236 FILLER_0_38_15
*1237 FILLER_0_38_152
*1238 FILLER_0_38_158
*1239 FILLER_0_38_169
*1240 FILLER_0_38_181
*1241 FILLER_0_38_195
*1242 FILLER_0_38_197
*1243 FILLER_0_38_201
*1244 FILLER_0_38_212
*1245 FILLER_0_38_225
*1246 FILLER_0_38_251
*1247 FILLER_0_38_256
*1248 FILLER_0_38_268
*1249 FILLER_0_38_27
*1250 FILLER_0_38_281
*1251 FILLER_0_38_29
*1252 FILLER_0_38_293
*1253 FILLER_0_38_3
*1254 FILLER_0_38_302
*1255 FILLER_0_38_309
*1256 FILLER_0_38_321
*1257 FILLER_0_38_333
*1258 FILLER_0_38_337
*1259 FILLER_0_38_349
*1260 FILLER_0_38_41
*1261 FILLER_0_38_53
*1262 FILLER_0_38_57
*1263 FILLER_0_38_68
*1264 FILLER_0_38_74
*1265 FILLER_0_38_80
*1266 FILLER_0_38_88
*1267 FILLER_0_38_92
*1268 FILLER_0_38_98
*1269 FILLER_0_3_105
*1270 FILLER_0_3_111
*1271 FILLER_0_3_113
*1272 FILLER_0_3_125
*1273 FILLER_0_3_137
*1274 FILLER_0_3_149
*1275 FILLER_0_3_15
*1276 FILLER_0_3_161
*1277 FILLER_0_3_167
*1278 FILLER_0_3_169
*1279 FILLER_0_3_181
*1280 FILLER_0_3_193
*1281 FILLER_0_3_205
*1282 FILLER_0_3_217
*1283 FILLER_0_3_223
*1284 FILLER_0_3_225
*1285 FILLER_0_3_237
*1286 FILLER_0_3_249
*1287 FILLER_0_3_261
*1288 FILLER_0_3_27
*1289 FILLER_0_3_273
*1290 FILLER_0_3_279
*1291 FILLER_0_3_281
*1292 FILLER_0_3_293
*1293 FILLER_0_3_3
*1294 FILLER_0_3_305
*1295 FILLER_0_3_317
*1296 FILLER_0_3_329
*1297 FILLER_0_3_335
*1298 FILLER_0_3_337
*1299 FILLER_0_3_349
*1300 FILLER_0_3_39
*1301 FILLER_0_3_51
*1302 FILLER_0_3_55
*1303 FILLER_0_3_57
*1304 FILLER_0_3_69
*1305 FILLER_0_3_81
*1306 FILLER_0_3_93
*1307 FILLER_0_4_109
*1308 FILLER_0_4_121
*1309 FILLER_0_4_133
*1310 FILLER_0_4_139
*1311 FILLER_0_4_141
*1312 FILLER_0_4_15
*1313 FILLER_0_4_153
*1314 FILLER_0_4_165
*1315 FILLER_0_4_177
*1316 FILLER_0_4_189
*1317 FILLER_0_4_195
*1318 FILLER_0_4_197
*1319 FILLER_0_4_209
*1320 FILLER_0_4_221
*1321 FILLER_0_4_233
*1322 FILLER_0_4_245
*1323 FILLER_0_4_251
*1324 FILLER_0_4_253
*1325 FILLER_0_4_265
*1326 FILLER_0_4_27
*1327 FILLER_0_4_277
*1328 FILLER_0_4_289
*1329 FILLER_0_4_29
*1330 FILLER_0_4_3
*1331 FILLER_0_4_301
*1332 FILLER_0_4_307
*1333 FILLER_0_4_309
*1334 FILLER_0_4_321
*1335 FILLER_0_4_333
*1336 FILLER_0_4_345
*1337 FILLER_0_4_41
*1338 FILLER_0_4_53
*1339 FILLER_0_4_65
*1340 FILLER_0_4_77
*1341 FILLER_0_4_83
*1342 FILLER_0_4_85
*1343 FILLER_0_4_97
*1344 FILLER_0_5_105
*1345 FILLER_0_5_111
*1346 FILLER_0_5_113
*1347 FILLER_0_5_125
*1348 FILLER_0_5_137
*1349 FILLER_0_5_149
*1350 FILLER_0_5_15
*1351 FILLER_0_5_161
*1352 FILLER_0_5_167
*1353 FILLER_0_5_169
*1354 FILLER_0_5_181
*1355 FILLER_0_5_193
*1356 FILLER_0_5_205
*1357 FILLER_0_5_217
*1358 FILLER_0_5_223
*1359 FILLER_0_5_225
*1360 FILLER_0_5_237
*1361 FILLER_0_5_249
*1362 FILLER_0_5_261
*1363 FILLER_0_5_27
*1364 FILLER_0_5_273
*1365 FILLER_0_5_279
*1366 FILLER_0_5_281
*1367 FILLER_0_5_293
*1368 FILLER_0_5_3
*1369 FILLER_0_5_305
*1370 FILLER_0_5_317
*1371 FILLER_0_5_329
*1372 FILLER_0_5_335
*1373 FILLER_0_5_337
*1374 FILLER_0_5_349
*1375 FILLER_0_5_39
*1376 FILLER_0_5_51
*1377 FILLER_0_5_55
*1378 FILLER_0_5_57
*1379 FILLER_0_5_69
*1380 FILLER_0_5_81
*1381 FILLER_0_5_93
*1382 FILLER_0_6_109
*1383 FILLER_0_6_121
*1384 FILLER_0_6_133
*1385 FILLER_0_6_139
*1386 FILLER_0_6_141
*1387 FILLER_0_6_15
*1388 FILLER_0_6_153
*1389 FILLER_0_6_165
*1390 FILLER_0_6_177
*1391 FILLER_0_6_189
*1392 FILLER_0_6_195
*1393 FILLER_0_6_197
*1394 FILLER_0_6_209
*1395 FILLER_0_6_221
*1396 FILLER_0_6_233
*1397 FILLER_0_6_245
*1398 FILLER_0_6_251
*1399 FILLER_0_6_253
*1400 FILLER_0_6_265
*1401 FILLER_0_6_27
*1402 FILLER_0_6_277
*1403 FILLER_0_6_289
*1404 FILLER_0_6_29
*1405 FILLER_0_6_3
*1406 FILLER_0_6_301
*1407 FILLER_0_6_307
*1408 FILLER_0_6_309
*1409 FILLER_0_6_321
*1410 FILLER_0_6_333
*1411 FILLER_0_6_345
*1412 FILLER_0_6_41
*1413 FILLER_0_6_53
*1414 FILLER_0_6_65
*1415 FILLER_0_6_77
*1416 FILLER_0_6_83
*1417 FILLER_0_6_85
*1418 FILLER_0_6_97
*1419 FILLER_0_7_105
*1420 FILLER_0_7_111
*1421 FILLER_0_7_113
*1422 FILLER_0_7_125
*1423 FILLER_0_7_137
*1424 FILLER_0_7_149
*1425 FILLER_0_7_15
*1426 FILLER_0_7_161
*1427 FILLER_0_7_167
*1428 FILLER_0_7_169
*1429 FILLER_0_7_181
*1430 FILLER_0_7_193
*1431 FILLER_0_7_205
*1432 FILLER_0_7_217
*1433 FILLER_0_7_223
*1434 FILLER_0_7_225
*1435 FILLER_0_7_237
*1436 FILLER_0_7_249
*1437 FILLER_0_7_261
*1438 FILLER_0_7_27
*1439 FILLER_0_7_273
*1440 FILLER_0_7_279
*1441 FILLER_0_7_281
*1442 FILLER_0_7_293
*1443 FILLER_0_7_3
*1444 FILLER_0_7_305
*1445 FILLER_0_7_317
*1446 FILLER_0_7_329
*1447 FILLER_0_7_335
*1448 FILLER_0_7_337
*1449 FILLER_0_7_349
*1450 FILLER_0_7_39
*1451 FILLER_0_7_51
*1452 FILLER_0_7_55
*1453 FILLER_0_7_57
*1454 FILLER_0_7_69
*1455 FILLER_0_7_81
*1456 FILLER_0_7_93
*1457 FILLER_0_8_109
*1458 FILLER_0_8_121
*1459 FILLER_0_8_133
*1460 FILLER_0_8_139
*1461 FILLER_0_8_141
*1462 FILLER_0_8_15
*1463 FILLER_0_8_153