*SPEF "ieee 1481-1999"
*DESIGN "tt_um_sunaofurukawa_cpu_8bit"
*DATE "11:11:11 Fri 11 11, 1111"
*VENDOR "OpenRCX"
*PROGRAM "Parallel Extraction"
*VERSION "1.0"
*DESIGN_FLOW "NAME_SCOPE LOCAL" "PIN_CAP NONE"
*DIVIDER /
*DELIMITER :
*BUS_DELIMITER []
*T_UNIT 1 NS
*C_UNIT 1 PF
*R_UNIT 1 OHM
*L_UNIT 1 HENRY

*NAME_MAP
*3 clk
*4 ena
*5 rst_n
*6 ui_in[0]
*7 ui_in[1]
*8 ui_in[2]
*9 ui_in[3]
*10 ui_in[4]
*11 ui_in[5]
*12 ui_in[6]
*13 ui_in[7]
*14 uio_in[0]
*15 uio_in[1]
*16 uio_in[2]
*17 uio_in[3]
*18 uio_in[4]
*19 uio_in[5]
*20 uio_in[6]
*21 uio_in[7]
*22 net11
*23 net12
*24 net13
*25 net14
*26 net15
*27 net16
*28 net17
*29 net18
*30 net19
*31 net20
*32 net21
*33 net22
*34 net23
*35 net24
*36 net25
*37 net26
*38 uo_out[0]
*39 uo_out[1]
*40 uo_out[2]
*41 uo_out[3]
*42 uo_out[4]
*43 uo_out[5]
*44 uo_out[6]
*45 uo_out[7]
*46 _000_
*47 _001_
*48 _002_
*49 _003_
*50 _004_
*51 _005_
*52 _006_
*53 _007_
*54 _008_
*55 _009_
*56 _010_
*57 _011_
*58 _012_
*59 _013_
*60 _014_
*61 _015_
*62 _016_
*63 _017_
*64 _018_
*65 _019_
*66 _020_
*67 _021_
*68 _022_
*69 _023_
*70 _024_
*71 _025_
*72 _026_
*73 _027_
*74 _028_
*75 _029_
*76 _030_
*77 _031_
*78 _032_
*79 _033_
*80 _034_
*81 _035_
*82 _036_
*83 _037_
*84 _038_
*85 _039_
*86 _040_
*87 _041_
*88 _042_
*89 _043_
*90 _044_
*91 _045_
*92 _046_
*93 _047_
*94 _048_
*95 _049_
*96 _050_
*97 _051_
*98 _052_
*99 _053_
*100 _054_
*101 _055_
*102 _056_
*103 _057_
*104 _058_
*105 _059_
*106 _060_
*107 _061_
*108 _062_
*109 _063_
*110 _064_
*111 _065_
*112 _066_
*113 _067_
*114 _068_
*115 _069_
*116 _070_
*117 _071_
*118 _072_
*119 _073_
*120 _074_
*121 _075_
*122 _076_
*123 _077_
*124 _078_
*125 _079_
*126 _080_
*127 _081_
*128 _082_
*129 _083_
*130 _084_
*131 _085_
*132 _086_
*133 _087_
*134 _088_
*135 _089_
*136 _090_
*137 _091_
*138 _092_
*139 _093_
*140 _094_
*141 _095_
*142 _096_
*143 _097_
*144 _098_
*145 _099_
*146 _100_
*147 clknet_0_clk
*148 clknet_1_0__leaf_clk
*149 clknet_1_1__leaf_clk
*150 instruction\[0\]
*151 instruction\[1\]
*152 instruction\[2\]
*153 instruction\[3\]
*154 net1
*155 net10
*156 net2
*157 net3
*158 net4
*159 net5
*160 net6
*161 net7
*162 net8
*163 net9
*164 FILLER_0_0_109
*165 FILLER_0_0_113
*166 FILLER_0_0_125
*167 FILLER_0_0_137
*168 FILLER_0_0_141
*169 FILLER_0_0_15
*170 FILLER_0_0_153
*171 FILLER_0_0_165
*172 FILLER_0_0_169
*173 FILLER_0_0_181
*174 FILLER_0_0_193
*175 FILLER_0_0_197
*176 FILLER_0_0_209
*177 FILLER_0_0_221
*178 FILLER_0_0_225
*179 FILLER_0_0_237
*180 FILLER_0_0_249
*181 FILLER_0_0_253
*182 FILLER_0_0_265
*183 FILLER_0_0_27
*184 FILLER_0_0_277
*185 FILLER_0_0_281
*186 FILLER_0_0_29
*187 FILLER_0_0_293
*188 FILLER_0_0_3
*189 FILLER_0_0_305
*190 FILLER_0_0_309
*191 FILLER_0_0_321
*192 FILLER_0_0_333
*193 FILLER_0_0_337
*194 FILLER_0_0_349
*195 FILLER_0_0_41
*196 FILLER_0_0_53
*197 FILLER_0_0_57
*198 FILLER_0_0_69
*199 FILLER_0_0_81
*200 FILLER_0_0_85
*201 FILLER_0_0_97
*202 FILLER_0_10_109
*203 FILLER_0_10_121
*204 FILLER_0_10_133
*205 FILLER_0_10_139
*206 FILLER_0_10_141
*207 FILLER_0_10_15
*208 FILLER_0_10_153
*209 FILLER_0_10_165
*210 FILLER_0_10_177
*211 FILLER_0_10_189
*212 FILLER_0_10_195
*213 FILLER_0_10_197
*214 FILLER_0_10_209
*215 FILLER_0_10_221
*216 FILLER_0_10_233
*217 FILLER_0_10_245
*218 FILLER_0_10_251
*219 FILLER_0_10_253
*220 FILLER_0_10_265
*221 FILLER_0_10_27
*222 FILLER_0_10_277
*223 FILLER_0_10_289
*224 FILLER_0_10_29
*225 FILLER_0_10_3
*226 FILLER_0_10_301
*227 FILLER_0_10_307
*228 FILLER_0_10_309
*229 FILLER_0_10_321
*230 FILLER_0_10_333
*231 FILLER_0_10_345
*232 FILLER_0_10_41
*233 FILLER_0_10_53
*234 FILLER_0_10_65
*235 FILLER_0_10_77
*236 FILLER_0_10_83
*237 FILLER_0_10_85
*238 FILLER_0_10_97
*239 FILLER_0_11_105
*240 FILLER_0_11_111
*241 FILLER_0_11_113
*242 FILLER_0_11_125
*243 FILLER_0_11_137
*244 FILLER_0_11_149
*245 FILLER_0_11_15
*246 FILLER_0_11_161
*247 FILLER_0_11_167
*248 FILLER_0_11_169
*249 FILLER_0_11_181
*250 FILLER_0_11_193
*251 FILLER_0_11_205
*252 FILLER_0_11_217
*253 FILLER_0_11_223
*254 FILLER_0_11_225
*255 FILLER_0_11_237
*256 FILLER_0_11_249
*257 FILLER_0_11_261
*258 FILLER_0_11_27
*259 FILLER_0_11_273
*260 FILLER_0_11_279
*261 FILLER_0_11_281
*262 FILLER_0_11_293
*263 FILLER_0_11_3
*264 FILLER_0_11_305
*265 FILLER_0_11_317
*266 FILLER_0_11_329
*267 FILLER_0_11_335
*268 FILLER_0_11_337
*269 FILLER_0_11_349
*270 FILLER_0_11_39
*271 FILLER_0_11_51
*272 FILLER_0_11_55
*273 FILLER_0_11_57
*274 FILLER_0_11_69
*275 FILLER_0_11_81
*276 FILLER_0_11_93
*277 FILLER_0_12_109
*278 FILLER_0_12_121
*279 FILLER_0_12_133
*280 FILLER_0_12_139
*281 FILLER_0_12_141
*282 FILLER_0_12_15
*283 FILLER_0_12_153
*284 FILLER_0_12_165
*285 FILLER_0_12_177
*286 FILLER_0_12_189
*287 FILLER_0_12_195
*288 FILLER_0_12_197
*289 FILLER_0_12_209
*290 FILLER_0_12_221
*291 FILLER_0_12_233
*292 FILLER_0_12_245
*293 FILLER_0_12_251
*294 FILLER_0_12_253
*295 FILLER_0_12_265
*296 FILLER_0_12_27
*297 FILLER_0_12_277
*298 FILLER_0_12_289
*299 FILLER_0_12_29
*300 FILLER_0_12_3
*301 FILLER_0_12_301
*302 FILLER_0_12_307
*303 FILLER_0_12_309
*304 FILLER_0_12_321
*305 FILLER_0_12_333
*306 FILLER_0_12_345
*307 FILLER_0_12_41
*308 FILLER_0_12_53
*309 FILLER_0_12_65
*310 FILLER_0_12_77
*311 FILLER_0_12_83
*312 FILLER_0_12_85
*313 FILLER_0_12_97
*314 FILLER_0_13_105
*315 FILLER_0_13_111
*316 FILLER_0_13_113
*317 FILLER_0_13_125
*318 FILLER_0_13_137
*319 FILLER_0_13_149
*320 FILLER_0_13_15
*321 FILLER_0_13_161
*322 FILLER_0_13_167
*323 FILLER_0_13_169
*324 FILLER_0_13_181
*325 FILLER_0_13_193
*326 FILLER_0_13_205
*327 FILLER_0_13_217
*328 FILLER_0_13_223
*329 FILLER_0_13_225
*330 FILLER_0_13_237
*331 FILLER_0_13_249
*332 FILLER_0_13_261
*333 FILLER_0_13_27
*334 FILLER_0_13_273
*335 FILLER_0_13_279
*336 FILLER_0_13_281
*337 FILLER_0_13_293
*338 FILLER_0_13_3
*339 FILLER_0_13_305
*340 FILLER_0_13_317
*341 FILLER_0_13_329
*342 FILLER_0_13_335
*343 FILLER_0_13_337
*344 FILLER_0_13_349
*345 FILLER_0_13_39
*346 FILLER_0_13_51
*347 FILLER_0_13_55
*348 FILLER_0_13_57
*349 FILLER_0_13_69
*350 FILLER_0_13_81
*351 FILLER_0_13_93
*352 FILLER_0_14_109
*353 FILLER_0_14_121
*354 FILLER_0_14_133
*355 FILLER_0_14_139
*356 FILLER_0_14_141
*357 FILLER_0_14_15
*358 FILLER_0_14_153
*359 FILLER_0_14_165
*360 FILLER_0_14_177
*361 FILLER_0_14_189
*362 FILLER_0_14_195
*363 FILLER_0_14_197
*364 FILLER_0_14_209
*365 FILLER_0_14_221
*366 FILLER_0_14_233
*367 FILLER_0_14_245
*368 FILLER_0_14_251
*369 FILLER_0_14_253
*370 FILLER_0_14_265
*371 FILLER_0_14_27
*372 FILLER_0_14_277
*373 FILLER_0_14_289
*374 FILLER_0_14_29
*375 FILLER_0_14_3
*376 FILLER_0_14_301
*377 FILLER_0_14_307
*378 FILLER_0_14_309
*379 FILLER_0_14_321
*380 FILLER_0_14_333
*381 FILLER_0_14_345
*382 FILLER_0_14_41
*383 FILLER_0_14_53
*384 FILLER_0_14_65
*385 FILLER_0_14_77
*386 FILLER_0_14_83
*387 FILLER_0_14_85
*388 FILLER_0_14_97
*389 FILLER_0_15_105
*390 FILLER_0_15_111
*391 FILLER_0_15_113
*392 FILLER_0_15_125
*393 FILLER_0_15_137
*394 FILLER_0_15_149
*395 FILLER_0_15_15
*396 FILLER_0_15_161
*397 FILLER_0_15_167
*398 FILLER_0_15_169
*399 FILLER_0_15_181
*400 FILLER_0_15_193
*401 FILLER_0_15_205
*402 FILLER_0_15_217
*403 FILLER_0_15_223
*404 FILLER_0_15_225
*405 FILLER_0_15_237
*406 FILLER_0_15_249
*407 FILLER_0_15_261
*408 FILLER_0_15_27
*409 FILLER_0_15_273
*410 FILLER_0_15_279
*411 FILLER_0_15_281
*412 FILLER_0_15_293
*413 FILLER_0_15_3
*414 FILLER_0_15_305
*415 FILLER_0_15_317
*416 FILLER_0_15_329
*417 FILLER_0_15_335
*418 FILLER_0_15_337
*419 FILLER_0_15_349
*420 FILLER_0_15_39
*421 FILLER_0_15_51
*422 FILLER_0_15_55
*423 FILLER_0_15_57
*424 FILLER_0_15_69
*425 FILLER_0_15_81
*426 FILLER_0_15_93
*427 FILLER_0_16_109
*428 FILLER_0_16_121
*429 FILLER_0_16_133
*430 FILLER_0_16_139
*431 FILLER_0_16_141
*432 FILLER_0_16_15
*433 FILLER_0_16_153
*434 FILLER_0_16_165
*435 FILLER_0_16_177
*436 FILLER_0_16_189
*437 FILLER_0_16_195
*438 FILLER_0_16_197
*439 FILLER_0_16_209
*440 FILLER_0_16_221
*441 FILLER_0_16_233
*442 FILLER_0_16_245
*443 FILLER_0_16_251
*444 FILLER_0_16_253
*445 FILLER_0_16_265
*446 FILLER_0_16_27
*447 FILLER_0_16_277
*448 FILLER_0_16_289
*449 FILLER_0_16_29
*450 FILLER_0_16_3
*451 FILLER_0_16_301
*452 FILLER_0_16_307
*453 FILLER_0_16_309
*454 FILLER_0_16_321
*455 FILLER_0_16_333
*456 FILLER_0_16_345
*457 FILLER_0_16_41
*458 FILLER_0_16_53
*459 FILLER_0_16_65
*460 FILLER_0_16_77
*461 FILLER_0_16_83
*462 FILLER_0_16_85
*463 FILLER_0_16_97
*464 FILLER_0_17_105
*465 FILLER_0_17_111
*466 FILLER_0_17_113
*467 FILLER_0_17_125
*468 FILLER_0_17_137
*469 FILLER_0_17_149
*470 FILLER_0_17_15
*471 FILLER_0_17_161
*472 FILLER_0_17_167
*473 FILLER_0_17_169
*474 FILLER_0_17_181
*475 FILLER_0_17_193
*476 FILLER_0_17_205
*477 FILLER_0_17_217
*478 FILLER_0_17_223
*479 FILLER_0_17_225
*480 FILLER_0_17_237
*481 FILLER_0_17_249
*482 FILLER_0_17_261
*483 FILLER_0_17_27
*484 FILLER_0_17_273
*485 FILLER_0_17_279
*486 FILLER_0_17_281
*487 FILLER_0_17_293
*488 FILLER_0_17_3
*489 FILLER_0_17_305
*490 FILLER_0_17_317
*491 FILLER_0_17_329
*492 FILLER_0_17_335
*493 FILLER_0_17_337
*494 FILLER_0_17_349
*495 FILLER_0_17_39
*496 FILLER_0_17_51
*497 FILLER_0_17_55
*498 FILLER_0_17_57
*499 FILLER_0_17_69
*500 FILLER_0_17_81
*501 FILLER_0_17_93
*502 FILLER_0_18_109
*503 FILLER_0_18_121
*504 FILLER_0_18_133
*505 FILLER_0_18_139
*506 FILLER_0_18_141
*507 FILLER_0_18_15
*508 FILLER_0_18_153
*509 FILLER_0_18_165
*510 FILLER_0_18_177
*511 FILLER_0_18_189
*512 FILLER_0_18_195
*513 FILLER_0_18_197
*514 FILLER_0_18_209
*515 FILLER_0_18_221
*516 FILLER_0_18_233
*517 FILLER_0_18_245
*518 FILLER_0_18_251
*519 FILLER_0_18_253
*520 FILLER_0_18_265
*521 FILLER_0_18_27
*522 FILLER_0_18_277
*523 FILLER_0_18_289
*524 FILLER_0_18_29
*525 FILLER_0_18_3
*526 FILLER_0_18_301
*527 FILLER_0_18_307
*528 FILLER_0_18_309
*529 FILLER_0_18_321
*530 FILLER_0_18_333
*531 FILLER_0_18_345
*532 FILLER_0_18_41
*533 FILLER_0_18_53
*534 FILLER_0_18_65
*535 FILLER_0_18_77
*536 FILLER_0_18_83
*537 FILLER_0_18_85
*538 FILLER_0_18_97
*539 FILLER_0_19_105
*540 FILLER_0_19_111
*541 FILLER_0_19_113
*542 FILLER_0_19_125
*543 FILLER_0_19_137
*544 FILLER_0_19_149
*545 FILLER_0_19_15
*546 FILLER_0_19_161
*547 FILLER_0_19_167
*548 FILLER_0_19_169
*549 FILLER_0_19_181
*550 FILLER_0_19_193
*551 FILLER_0_19_205
*552 FILLER_0_19_217
*553 FILLER_0_19_223
*554 FILLER_0_19_225
*555 FILLER_0_19_237
*556 FILLER_0_19_249
*557 FILLER_0_19_261
*558 FILLER_0_19_27
*559 FILLER_0_19_273
*560 FILLER_0_19_279
*561 FILLER_0_19_281
*562 FILLER_0_19_293
*563 FILLER_0_19_3
*564 FILLER_0_19_305
*565 FILLER_0_19_317
*566 FILLER_0_19_329
*567 FILLER_0_19_335
*568 FILLER_0_19_337
*569 FILLER_0_19_349
*570 FILLER_0_19_39
*571 FILLER_0_19_51
*572 FILLER_0_19_55
*573 FILLER_0_19_57
*574 FILLER_0_19_69
*575 FILLER_0_19_81
*576 FILLER_0_19_93
*577 FILLER_0_1_105
*578 FILLER_0_1_111
*579 FILLER_0_1_113
*580 FILLER_0_1_125
*581 FILLER_0_1_137
*582 FILLER_0_1_149
*583 FILLER_0_1_15
*584 FILLER_0_1_161
*585 FILLER_0_1_167
*586 FILLER_0_1_169
*587 FILLER_0_1_181
*588 FILLER_0_1_193
*589 FILLER_0_1_205
*590 FILLER_0_1_217
*591 FILLER_0_1_223
*592 FILLER_0_1_225
*593 FILLER_0_1_237
*594 FILLER_0_1_249
*595 FILLER_0_1_261
*596 FILLER_0_1_27
*597 FILLER_0_1_273
*598 FILLER_0_1_279
*599 FILLER_0_1_281
*600 FILLER_0_1_293
*601 FILLER_0_1_3
*602 FILLER_0_1_305
*603 FILLER_0_1_317
*604 FILLER_0_1_329
*605 FILLER_0_1_335
*606 FILLER_0_1_337
*607 FILLER_0_1_349
*608 FILLER_0_1_39
*609 FILLER_0_1_51
*610 FILLER_0_1_55
*611 FILLER_0_1_57
*612 FILLER_0_1_69
*613 FILLER_0_1_81
*614 FILLER_0_1_93
*615 FILLER_0_20_109
*616 FILLER_0_20_121
*617 FILLER_0_20_133
*618 FILLER_0_20_139
*619 FILLER_0_20_141
*620 FILLER_0_20_15
*621 FILLER_0_20_153
*622 FILLER_0_20_165
*623 FILLER_0_20_177
*624 FILLER_0_20_189
*625 FILLER_0_20_195
*626 FILLER_0_20_197
*627 FILLER_0_20_209
*628 FILLER_0_20_221
*629 FILLER_0_20_233
*630 FILLER_0_20_245
*631 FILLER_0_20_251
*632 FILLER_0_20_253
*633 FILLER_0_20_265
*634 FILLER_0_20_27
*635 FILLER_0_20_277
*636 FILLER_0_20_289
*637 FILLER_0_20_29
*638 FILLER_0_20_3
*639 FILLER_0_20_301
*640 FILLER_0_20_307
*641 FILLER_0_20_309
*642 FILLER_0_20_321
*643 FILLER_0_20_333
*644 FILLER_0_20_345
*645 FILLER_0_20_41
*646 FILLER_0_20_53
*647 FILLER_0_20_65
*648 FILLER_0_20_77
*649 FILLER_0_20_83
*650 FILLER_0_20_85
*651 FILLER_0_20_97
*652 FILLER_0_21_105
*653 FILLER_0_21_111
*654 FILLER_0_21_113
*655 FILLER_0_21_125
*656 FILLER_0_21_137
*657 FILLER_0_21_149
*658 FILLER_0_21_15
*659 FILLER_0_21_161
*660 FILLER_0_21_167
*661 FILLER_0_21_169
*662 FILLER_0_21_181
*663 FILLER_0_21_193
*664 FILLER_0_21_205
*665 FILLER_0_21_217
*666 FILLER_0_21_223
*667 FILLER_0_21_225
*668 FILLER_0_21_237
*669 FILLER_0_21_249
*670 FILLER_0_21_261
*671 FILLER_0_21_27
*672 FILLER_0_21_273
*673 FILLER_0_21_279
*674 FILLER_0_21_281
*675 FILLER_0_21_293
*676 FILLER_0_21_3
*677 FILLER_0_21_305
*678 FILLER_0_21_317
*679 FILLER_0_21_329
*680 FILLER_0_21_335
*681 FILLER_0_21_337
*682 FILLER_0_21_349
*683 FILLER_0_21_39
*684 FILLER_0_21_51
*685 FILLER_0_21_55
*686 FILLER_0_21_57
*687 FILLER_0_21_69
*688 FILLER_0_21_81
*689 FILLER_0_21_93
*690 FILLER_0_22_109
*691 FILLER_0_22_121
*692 FILLER_0_22_133
*693 FILLER_0_22_139
*694 FILLER_0_22_141
*695 FILLER_0_22_15
*696 FILLER_0_22_153
*697 FILLER_0_22_165
*698 FILLER_0_22_177
*699 FILLER_0_22_189
*700 FILLER_0_22_195
*701 FILLER_0_22_197
*702 FILLER_0_22_209
*703 FILLER_0_22_221
*704 FILLER_0_22_233
*705 FILLER_0_22_245
*706 FILLER_0_22_251
*707 FILLER_0_22_253
*708 FILLER_0_22_265
*709 FILLER_0_22_27
*710 FILLER_0_22_277
*711 FILLER_0_22_289
*712 FILLER_0_22_29
*713 FILLER_0_22_3
*714 FILLER_0_22_301
*715 FILLER_0_22_307
*716 FILLER_0_22_309
*717 FILLER_0_22_321
*718 FILLER_0_22_333
*719 FILLER_0_22_345
*720 FILLER_0_22_41
*721 FILLER_0_22_53
*722 FILLER_0_22_65
*723 FILLER_0_22_77
*724 FILLER_0_22_83
*725 FILLER_0_22_85
*726 FILLER_0_22_97
*727 FILLER_0_23_105
*728 FILLER_0_23_111
*729 FILLER_0_23_113
*730 FILLER_0_23_125
*731 FILLER_0_23_137
*732 FILLER_0_23_149
*733 FILLER_0_23_15
*734 FILLER_0_23_161
*735 FILLER_0_23_167
*736 FILLER_0_23_169
*737 FILLER_0_23_181
*738 FILLER_0_23_193
*739 FILLER_0_23_205
*740 FILLER_0_23_217
*741 FILLER_0_23_223
*742 FILLER_0_23_225
*743 FILLER_0_23_237
*744 FILLER_0_23_249
*745 FILLER_0_23_261
*746 FILLER_0_23_27
*747 FILLER_0_23_273
*748 FILLER_0_23_279
*749 FILLER_0_23_281
*750 FILLER_0_23_293
*751 FILLER_0_23_3
*752 FILLER_0_23_305
*753 FILLER_0_23_317
*754 FILLER_0_23_329
*755 FILLER_0_23_335
*756 FILLER_0_23_337
*757 FILLER_0_23_349
*758 FILLER_0_23_39
*759 FILLER_0_23_51
*760 FILLER_0_23_55
*761 FILLER_0_23_57
*762 FILLER_0_23_69
*763 FILLER_0_23_81
*764 FILLER_0_23_93
*765 FILLER_0_24_109
*766 FILLER_0_24_121
*767 FILLER_0_24_133
*768 FILLER_0_24_139
*769 FILLER_0_24_141
*770 FILLER_0_24_15
*771 FILLER_0_24_153
*772 FILLER_0_24_165
*773 FILLER_0_24_177
*774 FILLER_0_24_189
*775 FILLER_0_24_195
*776 FILLER_0_24_197
*777 FILLER_0_24_209
*778 FILLER_0_24_221
*779 FILLER_0_24_233
*780 FILLER_0_24_245
*781 FILLER_0_24_251
*782 FILLER_0_24_253
*783 FILLER_0_24_265
*784 FILLER_0_24_27
*785 FILLER_0_24_277
*786 FILLER_0_24_289
*787 FILLER_0_24_29
*788 FILLER_0_24_3
*789 FILLER_0_24_301
*790 FILLER_0_24_307
*791 FILLER_0_24_309
*792 FILLER_0_24_321
*793 FILLER_0_24_333
*794 FILLER_0_24_345
*795 FILLER_0_24_41
*796 FILLER_0_24_53
*797 FILLER_0_24_65
*798 FILLER_0_24_77
*799 FILLER_0_24_83
*800 FILLER_0_24_85
*801 FILLER_0_24_97
*802 FILLER_0_25_105
*803 FILLER_0_25_111
*804 FILLER_0_25_113
*805 FILLER_0_25_125
*806 FILLER_0_25_137
*807 FILLER_0_25_149
*808 FILLER_0_25_15
*809 FILLER_0_25_161
*810 FILLER_0_25_167
*811 FILLER_0_25_169
*812 FILLER_0_25_181
*813 FILLER_0_25_193
*814 FILLER_0_25_205
*815 FILLER_0_25_217
*816 FILLER_0_25_223
*817 FILLER_0_25_225
*818 FILLER_0_25_237
*819 FILLER_0_25_249
*820 FILLER_0_25_261
*821 FILLER_0_25_27
*822 FILLER_0_25_273
*823 FILLER_0_25_279
*824 FILLER_0_25_281
*825 FILLER_0_25_293
*826 FILLER_0_25_3
*827 FILLER_0_25_305
*828 FILLER_0_25_317
*829 FILLER_0_25_329
*830 FILLER_0_25_335
*831 FILLER_0_25_337
*832 FILLER_0_25_349
*833 FILLER_0_25_39
*834 FILLER_0_25_51
*835 FILLER_0_25_55
*836 FILLER_0_25_57
*837 FILLER_0_25_69
*838 FILLER_0_25_81
*839 FILLER_0_25_93
*840 FILLER_0_26_109
*841 FILLER_0_26_121
*842 FILLER_0_26_133
*843 FILLER_0_26_139
*844 FILLER_0_26_141
*845 FILLER_0_26_15
*846 FILLER_0_26_153
*847 FILLER_0_26_165
*848 FILLER_0_26_177
*849 FILLER_0_26_189
*850 FILLER_0_26_195
*851 FILLER_0_26_197
*852 FILLER_0_26_209
*853 FILLER_0_26_221
*854 FILLER_0_26_233
*855 FILLER_0_26_245
*856 FILLER_0_26_251
*857 FILLER_0_26_253
*858 FILLER_0_26_265
*859 FILLER_0_26_27
*860 FILLER_0_26_277
*861 FILLER_0_26_289
*862 FILLER_0_26_29
*863 FILLER_0_26_3
*864 FILLER_0_26_301
*865 FILLER_0_26_307
*866 FILLER_0_26_309
*867 FILLER_0_26_321
*868 FILLER_0_26_333
*869 FILLER_0_26_345
*870 FILLER_0_26_41
*871 FILLER_0_26_53
*872 FILLER_0_26_65
*873 FILLER_0_26_77
*874 FILLER_0_26_83
*875 FILLER_0_26_85
*876 FILLER_0_26_97
*877 FILLER_0_27_105
*878 FILLER_0_27_111
*879 FILLER_0_27_113
*880 FILLER_0_27_125
*881 FILLER_0_27_137
*882 FILLER_0_27_149
*883 FILLER_0_27_15
*884 FILLER_0_27_161
*885 FILLER_0_27_167
*886 FILLER_0_27_169
*887 FILLER_0_27_181
*888 FILLER_0_27_193
*889 FILLER_0_27_205
*890 FILLER_0_27_217
*891 FILLER_0_27_223
*892 FILLER_0_27_225
*893 FILLER_0_27_237
*894 FILLER_0_27_249
*895 FILLER_0_27_261
*896 FILLER_0_27_27
*897 FILLER_0_27_273
*898 FILLER_0_27_279
*899 FILLER_0_27_281
*900 FILLER_0_27_293
*901 FILLER_0_27_3
*902 FILLER_0_27_305
*903 FILLER_0_27_317
*904 FILLER_0_27_329
*905 FILLER_0_27_335
*906 FILLER_0_27_337
*907 FILLER_0_27_349
*908 FILLER_0_27_39
*909 FILLER_0_27_51
*910 FILLER_0_27_55
*911 FILLER_0_27_57
*912 FILLER_0_27_69
*913 FILLER_0_27_81
*914 FILLER_0_27_93
*915 FILLER_0_28_109
*916 FILLER_0_28_121
*917 FILLER_0_28_133
*918 FILLER_0_28_139
*919 FILLER_0_28_141
*920 FILLER_0_28_15
*921 FILLER_0_28_153
*922 FILLER_0_28_165
*923 FILLER_0_28_177
*924 FILLER_0_28_189
*925 FILLER_0_28_195
*926 FILLER_0_28_197
*927 FILLER_0_28_209
*928 FILLER_0_28_221
*929 FILLER_0_28_233
*930 FILLER_0_28_245
*931 FILLER_0_28_251
*932 FILLER_0_28_253
*933 FILLER_0_28_265
*934 FILLER_0_28_27
*935 FILLER_0_28_277
*936 FILLER_0_28_289
*937 FILLER_0_28_29
*938 FILLER_0_28_3
*939 FILLER_0_28_301
*940 FILLER_0_28_307
*941 FILLER_0_28_309
*942 FILLER_0_28_321
*943 FILLER_0_28_333
*944 FILLER_0_28_345
*945 FILLER_0_28_41
*946 FILLER_0_28_53
*947 FILLER_0_28_65
*948 FILLER_0_28_77
*949 FILLER_0_28_83
*950 FILLER_0_28_85
*951 FILLER_0_28_97
*952 FILLER_0_29_105
*953 FILLER_0_29_111
*954 FILLER_0_29_113
*955 FILLER_0_29_125
*956 FILLER_0_29_137
*957 FILLER_0_29_149
*958 FILLER_0_29_15
*959 FILLER_0_29_161
*960 FILLER_0_29_167
*961 FILLER_0_29_169
*962 FILLER_0_29_181
*963 FILLER_0_29_193
*964 FILLER_0_29_205
*965 FILLER_0_29_217
*966 FILLER_0_29_223
*967 FILLER_0_29_225
*968 FILLER_0_29_237
*969 FILLER_0_29_249
*970 FILLER_0_29_261
*971 FILLER_0_29_27
*972 FILLER_0_29_273
*973 FILLER_0_29_279
*974 FILLER_0_29_281
*975 FILLER_0_29_293
*976 FILLER_0_29_3
*977 FILLER_0_29_305
*978 FILLER_0_29_317
*979 FILLER_0_29_329
*980 FILLER_0_29_335
*981 FILLER_0_29_337
*982 FILLER_0_29_349
*983 FILLER_0_29_39
*984 FILLER_0_29_51
*985 FILLER_0_29_55
*986 FILLER_0_29_57
*987 FILLER_0_29_69
*988 FILLER_0_29_81
*989 FILLER_0_29_93
*990 FILLER_0_2_109
*991 FILLER_0_2_121
*992 FILLER_0_2_133
*993 FILLER_0_2_139
*994 FILLER_0_2_141
*995 FILLER_0_2_15
*996 FILLER_0_2_153
*997 FILLER_0_2_165
*998 FILLER_0_2_177
*999 FILLER_0_2_189
*1000 FILLER_0_2_195
*1001 FILLER_0_2_197
*1002 FILLER_0_2_209
*1003 FILLER_0_2_221
*1004 FILLER_0_2_233
*1005 FILLER_0_2_245
*1006 FILLER_0_2_251
*1007 FILLER_0_2_253
*1008 FILLER_0_2_265
*1009 FILLER_0_2_27
*1010 FILLER_0_2_277
*1011 FILLER_0_2_289
*1012 FILLER_0_2_29
*1013 FILLER_0_2_3
*1014 FILLER_0_2_301
*1015 FILLER_0_2_307
*1016 FILLER_0_2_309
*1017 FILLER_0_2_321
*1018 FILLER_0_2_333
*1019 FILLER_0_2_345
*1020 FILLER_0_2_41
*1021 FILLER_0_2_53
*1022 FILLER_0_2_65
*1023 FILLER_0_2_77
*1024 FILLER_0_2_83
*1025 FILLER_0_2_85
*1026 FILLER_0_2_97
*1027 FILLER_0_30_109
*1028 FILLER_0_30_121
*1029 FILLER_0_30_133
*1030 FILLER_0_30_139
*1031 FILLER_0_30_141
*1032 FILLER_0_30_15
*1033 FILLER_0_30_153
*1034 FILLER_0_30_164
*1035 FILLER_0_30_176
*1036 FILLER_0_30_188
*1037 FILLER_0_30_197
*1038 FILLER_0_30_209
*1039 FILLER_0_30_214
*1040 FILLER_0_30_226
*1041 FILLER_0_30_238
*1042 FILLER_0_30_250
*1043 FILLER_0_30_253
*1044 FILLER_0_30_265
*1045 FILLER_0_30_27
*1046 FILLER_0_30_277
*1047 FILLER_0_30_289
*1048 FILLER_0_30_29
*1049 FILLER_0_30_3
*1050 FILLER_0_30_301
*1051 FILLER_0_30_307
*1052 FILLER_0_30_309
*1053 FILLER_0_30_321
*1054 FILLER_0_30_333
*1055 FILLER_0_30_345
*1056 FILLER_0_30_41
*1057 FILLER_0_30_53
*1058 FILLER_0_30_65
*1059 FILLER_0_30_77
*1060 FILLER_0_30_83
*1061 FILLER_0_30_85
*1062 FILLER_0_30_97
*1063 FILLER_0_31_105
*1064 FILLER_0_31_111
*1065 FILLER_0_31_113
*1066 FILLER_0_31_125
*1067 FILLER_0_31_133
*1068 FILLER_0_31_145
*1069 FILLER_0_31_15
*1070 FILLER_0_31_161
*1071 FILLER_0_31_167
*1072 FILLER_0_31_185
*1073 FILLER_0_31_201
*1074 FILLER_0_31_205
*1075 FILLER_0_31_222
*1076 FILLER_0_31_237
*1077 FILLER_0_31_253
*1078 FILLER_0_31_265
*1079 FILLER_0_31_27
*1080 FILLER_0_31_277
*1081 FILLER_0_31_281
*1082 FILLER_0_31_293
*1083 FILLER_0_31_3
*1084 FILLER_0_31_305
*1085 FILLER_0_31_317
*1086 FILLER_0_31_329
*1087 FILLER_0_31_335
*1088 FILLER_0_31_337
*1089 FILLER_0_31_349
*1090 FILLER_0_31_39
*1091 FILLER_0_31_51
*1092 FILLER_0_31_55
*1093 FILLER_0_31_57
*1094 FILLER_0_31_69
*1095 FILLER_0_31_81
*1096 FILLER_0_31_93
*1097 FILLER_0_32_109
*1098 FILLER_0_32_121
*1099 FILLER_0_32_133
*1100 FILLER_0_32_139
*1101 FILLER_0_32_141
*1102 FILLER_0_32_15
*1103 FILLER_0_32_153
*1104 FILLER_0_32_165
*1105 FILLER_0_32_177
*1106 FILLER_0_32_193
*1107 FILLER_0_32_197
*1108 FILLER_0_32_205
*1109 FILLER_0_32_211
*1110 FILLER_0_32_223
*1111 FILLER_0_32_235
*1112 FILLER_0_32_253
*1113 FILLER_0_32_27
*1114 FILLER_0_32_275
*1115 FILLER_0_32_287
*1116 FILLER_0_32_29
*1117 FILLER_0_32_299
*1118 FILLER_0_32_3
*1119 FILLER_0_32_307
*1120 FILLER_0_32_309
*1121 FILLER_0_32_321
*1122 FILLER_0_32_333
*1123 FILLER_0_32_345
*1124 FILLER_0_32_41
*1125 FILLER_0_32_53
*1126 FILLER_0_32_65
*1127 FILLER_0_32_77
*1128 FILLER_0_32_83
*1129 FILLER_0_32_85
*1130 FILLER_0_32_97
*1131 FILLER_0_33_105
*1132 FILLER_0_33_111
*1133 FILLER_0_33_113
*1134 FILLER_0_33_121
*1135 FILLER_0_33_129
*1136 FILLER_0_33_145
*1137 FILLER_0_33_15
*1138 FILLER_0_33_156
*1139 FILLER_0_33_179
*1140 FILLER_0_33_192
*1141 FILLER_0_33_211
*1142 FILLER_0_33_215
*1143 FILLER_0_33_222
*1144 FILLER_0_33_232
*1145 FILLER_0_33_236
*1146 FILLER_0_33_260
*1147 FILLER_0_33_268
*1148 FILLER_0_33_27
*1149 FILLER_0_33_281
*1150 FILLER_0_33_293
*1151 FILLER_0_33_3
*1152 FILLER_0_33_305
*1153 FILLER_0_33_317
*1154 FILLER_0_33_329
*1155 FILLER_0_33_335
*1156 FILLER_0_33_337
*1157 FILLER_0_33_349
*1158 FILLER_0_33_39
*1159 FILLER_0_33_51
*1160 FILLER_0_33_55
*1161 FILLER_0_33_57
*1162 FILLER_0_33_69
*1163 FILLER_0_33_81
*1164 FILLER_0_33_93
*1165 FILLER_0_34_109
*1166 FILLER_0_34_121
*1167 FILLER_0_34_127
*1168 FILLER_0_34_137
*1169 FILLER_0_34_148
*1170 FILLER_0_34_15
*1171 FILLER_0_34_154
*1172 FILLER_0_34_162
*1173 FILLER_0_34_194
*1174 FILLER_0_34_206
*1175 FILLER_0_34_216
*1176 FILLER_0_34_251
*1177 FILLER_0_34_253
*1178 FILLER_0_34_260
*1179 FILLER_0_34_27
*1180 FILLER_0_34_276
*1181 FILLER_0_34_280
*1182 FILLER_0_34_29
*1183 FILLER_0_34_3
*1184 FILLER_0_34_300
*1185 FILLER_0_34_309
*1186 FILLER_0_34_321
*1187 FILLER_0_34_333
*1188 FILLER_0_34_345
*1189 FILLER_0_34_41
*1190 FILLER_0_34_53
*1191 FILLER_0_34_65
*1192 FILLER_0_34_77
*1193 FILLER_0_34_83
*1194 FILLER_0_34_85
*1195 FILLER_0_34_97
*1196 FILLER_0_35_105
*1197 FILLER_0_35_111
*1198 FILLER_0_35_113
*1199 FILLER_0_35_125
*1200 FILLER_0_35_15
*1201 FILLER_0_35_154
*1202 FILLER_0_35_167
*1203 FILLER_0_35_169
*1204 FILLER_0_35_175
*1205 FILLER_0_35_201
*1206 FILLER_0_35_213
*1207 FILLER_0_35_223
*1208 FILLER_0_35_225
*1209 FILLER_0_35_236
*1210 FILLER_0_35_252
*1211 FILLER_0_35_256
*1212 FILLER_0_35_262
*1213 FILLER_0_35_27
*1214 FILLER_0_35_275
*1215 FILLER_0_35_279
*1216 FILLER_0_35_294
*1217 FILLER_0_35_3
*1218 FILLER_0_35_300
*1219 FILLER_0_35_320
*1220 FILLER_0_35_332
*1221 FILLER_0_35_337
*1222 FILLER_0_35_349
*1223 FILLER_0_35_39
*1224 FILLER_0_35_51
*1225 FILLER_0_35_55
*1226 FILLER_0_35_57
*1227 FILLER_0_35_69
*1228 FILLER_0_35_81
*1229 FILLER_0_35_93
*1230 FILLER_0_36_109
*1231 FILLER_0_36_121
*1232 FILLER_0_36_133
*1233 FILLER_0_36_139
*1234 FILLER_0_36_15
*1235 FILLER_0_36_150
*1236 FILLER_0_36_185
*1237 FILLER_0_36_193
*1238 FILLER_0_36_202
*1239 FILLER_0_36_217
*1240 FILLER_0_36_253
*1241 FILLER_0_36_265
*1242 FILLER_0_36_27
*1243 FILLER_0_36_275
*1244 FILLER_0_36_29
*1245 FILLER_0_36_290
*1246 FILLER_0_36_3
*1247 FILLER_0_36_302
*1248 FILLER_0_36_309
*1249 FILLER_0_36_315
*1250 FILLER_0_36_332
*1251 FILLER_0_36_344
*1252 FILLER_0_36_350
*1253 FILLER_0_36_41
*1254 FILLER_0_36_53
*1255 FILLER_0_36_65
*1256 FILLER_0_36_77
*1257 FILLER_0_36_83
*1258 FILLER_0_36_85
*1259 FILLER_0_36_97
*1260 FILLER_0_37_105
*1261 FILLER_0_37_111
*1262 FILLER_0_37_113
*1263 FILLER_0_37_125
*1264 FILLER_0_37_131
*1265 FILLER_0_37_15
*1266 FILLER_0_37_158
*1267 FILLER_0_37_166
*1268 FILLER_0_37_172
*1269 FILLER_0_37_184
*1270 FILLER_0_37_208
*1271 FILLER_0_37_212
*1272 FILLER_0_37_218
*1273 FILLER_0_37_225
*1274 FILLER_0_37_233
*1275 FILLER_0_37_238
*1276 FILLER_0_37_254
*1277 FILLER_0_37_27
*1278 FILLER_0_37_278
*1279 FILLER_0_37_281
*1280 FILLER_0_37_3
*1281 FILLER_0_37_300
*1282 FILLER_0_37_328
*1283 FILLER_0_37_337
*1284 FILLER_0_37_349
*1285 FILLER_0_37_39
*1286 FILLER_0_37_51
*1287 FILLER_0_37_55
*1288 FILLER_0_37_57
*1289 FILLER_0_37_69
*1290 FILLER_0_37_81
*1291 FILLER_0_37_93
*1292 FILLER_0_38_104
*1293 FILLER_0_38_110
*1294 FILLER_0_38_116
*1295 FILLER_0_38_122
*1296 FILLER_0_38_128
*1297 FILLER_0_38_134
*1298 FILLER_0_38_141
*1299 FILLER_0_38_146
*1300 FILLER_0_38_15
*1301 FILLER_0_38_152
*1302 FILLER_0_38_158
*1303 FILLER_0_38_166
*1304 FILLER_0_38_192
*1305 FILLER_0_38_197
*1306 FILLER_0_38_209
*1307 FILLER_0_38_221
*1308 FILLER_0_38_259
*1309 FILLER_0_38_27
*1310 FILLER_0_38_273
*1311 FILLER_0_38_279
*1312 FILLER_0_38_281
*1313 FILLER_0_38_29
*1314 FILLER_0_38_3
*1315 FILLER_0_38_307
*1316 FILLER_0_38_334
*1317 FILLER_0_38_337
*1318 FILLER_0_38_349
*1319 FILLER_0_38_41
*1320 FILLER_0_38_53
*1321 FILLER_0_38_57
*1322 FILLER_0_38_68
*1323 FILLER_0_38_74
*1324 FILLER_0_38_80
*1325 FILLER_0_38_88
*1326 FILLER_0_38_92
*1327 FILLER_0_38_98
*1328 FILLER_0_3_105
*1329 FILLER_0_3_111
*1330 FILLER_0_3_113
*1331 FILLER_0_3_125
*1332 FILLER_0_3_137
*1333 FILLER_0_3_149
*1334 FILLER_0_3_15
*1335 FILLER_0_3_161
*1336 FILLER_0_3_167
*1337 FILLER_0_3_169
*1338 FILLER_0_3_181
*1339 FILLER_0_3_193
*1340 FILLER_0_3_205
*1341 FILLER_0_3_217
*1342 FILLER_0_3_223
*1343 FILLER_0_3_225
*1344 FILLER_0_3_237
*1345 FILLER_0_3_249
*1346 FILLER_0_3_261
*1347 FILLER_0_3_27
*1348 FILLER_0_3_273
*1349 FILLER_0_3_279
*1350 FILLER_0_3_281
*1351 FILLER_0_3_293
*1352 FILLER_0_3_3
*1353 FILLER_0_3_305
*1354 FILLER_0_3_317
*1355 FILLER_0_3_329
*1356 FILLER_0_3_335
*1357 FILLER_0_3_337
*1358 FILLER_0_3_349
*1359 FILLER_0_3_39
*1360 FILLER_0_3_51
*1361 FILLER_0_3_55
*1362 FILLER_0_3_57
*1363 FILLER_0_3_69
*1364 FILLER_0_3_81
*1365 FILLER_0_3_93
*1366 FILLER_0_4_109
*1367 FILLER_0_4_121
*1368 FILLER_0_4_133
*1369 FILLER_0_4_139
*1370 FILLER_0_4_141
*1371 FILLER_0_4_15
*1372 FILLER_0_4_153
*1373 FILLER_0_4_165
*1374 FILLER_0_4_177
*1375 FILLER_0_4_189
*1376 FILLER_0_4_195
*1377 FILLER_0_4_197
*1378 FILLER_0_4_209
*1379 FILLER_0_4_221
*1380 FILLER_0_4_233
*1381 FILLER_0_4_245
*1382 FILLER_0_4_251
*1383 FILLER_0_4_253
*1384 FILLER_0_4_265
*1385 FILLER_0_4_27
*1386 FILLER_0_4_277
*1387 FILLER_0_4_289
*1388 FILLER_0_4_29
*1389 FILLER_0_4_3
*1390 FILLER_0_4_301
*1391 FILLER_0_4_307
*1392 FILLER_0_4_309
*1393 FILLER_0_4_321
*1394 FILLER_0_4_333
*1395 FILLER_0_4_345
*1396 FILLER_0_4_41
*1397 FILLER_0_4_53
*1398 FILLER_0_4_65
*1399 FILLER_0_4_77
*1400 FILLER_0_4_83
*1401 FILLER_0_4_85
*1402 FILLER_0_4_97
*1403 FILLER_0_5_105
*1404 FILLER_0_5_111
*1405 FILLER_0_5_113
*1406 FILLER_0_5_125
*1407 FILLER_0_5_137
*1408 FILLER_0_5_149
*1409 FILLER_0_5_15
*1410 FILLER_0_5_161
*1411 FILLER_0_5_167
*1412 FILLER_0_5_169
*1413 FILLER_0_5_181
*1414 FILLER_0_5_193
*1415 FILLER_0_5_205
*1416 FILLER_0_5_217
*1417 FILLER_0_5_223
*1418 FILLER_0_5_225
*1419 FILLER_0_5_237
*1420 FILLER_0_5_249
*1421 FILLER_0_5_261
*1422 FILLER_0_5_27
*1423 FILLER_0_5_273
*1424 FILLER_0_5_279
*1425 FILLER_0_5_281
*1426 FILLER_0_5_293
*1427 FILLER_0_5_3
*1428 FILLER_0_5_305
*1429 FILLER_0_5_317
*1430 FILLER_0_5_329
*1431 FILLER_0_5_335
*1432 FILLER_0_5_337
*1433 FILLER_0_5_349
*1434 FILLER_0_5_39
*1435 FILLER_0_5_51
*1436 FILLER_0_5_55
*1437 FILLER_0_5_57
*1438 FILLER_0_5_69
*1439 FILLER_0_5_81
*1440 FILLER_0_5_93
*1441 FILLER_0_6_109
*1442 FILLER_0_6_121
*1443 FILLER_0_6_133
*1444 FILLER_0_6_139
*1445 FILLER_0_6_141
*1446 FILLER_0_6_15
*1447 FILLER_0_6_153
*1448 FILLER_0_6_165
*1449 FILLER_0_6_177
*1450 FILLER_0_6_189
*1451 FILLER_0_6_195
*1452 FILLER_0_6_197
*1453 FILLER_0_6_209
*1454 FILLER_0_6_221
*1455 FILLER_0_6_233
*1456 FILLER_0_6_245
*1457 FILLER_0_6_251
*1458 FILLER_0_6_253
*1459 FILLER_0_6_265
*1460 FILLER_0_6_27
*1461 FILLER_0_6_277
*1462 FILLER_0_6_289
*1463 FILLER_0_6_29
*1464 FILLER_0_6_3
*1465 FILLER_0_6_301
*1466 FILLER_0_6_307
*1467 FILLER_0_6_309
*1468 FILLER_0_6_321
*1469 FILLER_0_6_333
*1470 FILLER_0_6_345
*1471 FILLER_0_6_41
*1472 FILLER_0_6_53
*1473 FILLER_0_6_65
*1474 FILLER_0_6_77
*1475 FILLER_0_6_83
*1476 FILLER_0_6_85
*1477 FILLER_0_6_97
*1478 FILLER_0_7_105
*1479 FILLER_0_7_111
*1480 FILLER_0_7_113
*1481 FILLER_0_7_125
*1482 FILLER_0_7_137
*1483 FILLER_0_7_149
*1484 FILLER_0_7_15
*1485 FILLER_0_7_161
*1486 FILLER_0_7_167
*1487 FILLER_0_7_169
*1488 FILLER_0_7_181
*1489 FILLER_0_7_193
*1490 FILLER_0_7_205
*1491 FILLER_0_7_217
*1492 FILLER_0_7_223
*1493 FILLER_0_7_225
*1494 FILLER_0_7_237
*1495 FILLER_0_7_249
*1496 FILLER_0_7_261
*1497 FILLER_0_7_27
*1498 FILLER_0_7_273
*1499 FILLER_0_7_279