*SPEF "ieee 1481-1999"
*DESIGN "tt_um_flappy_vga_cutout1"
*DATE "11:11:11 Fri 11 11, 1111"
*VENDOR "OpenRCX"
*PROGRAM "Parallel Extraction"
*VERSION "1.0"
*DESIGN_FLOW "NAME_SCOPE LOCAL" "PIN_CAP NONE"
*DIVIDER /
*DELIMITER :
*BUS_DELIMITER []
*T_UNIT 1 NS
*C_UNIT 1 PF
*R_UNIT 1 OHM
*L_UNIT 1 HENRY

*NAME_MAP
*3 clk
*4 ena
*5 rst_n
*6 ui_in[0]
*7 ui_in[1]
*8 ui_in[2]
*9 ui_in[3]
*10 ui_in[4]
*11 ui_in[5]
*12 ui_in[6]
*13 ui_in[7]
*14 uio_in[0]
*15 uio_in[1]
*16 uio_in[2]
*17 uio_in[3]
*18 uio_in[4]
*19 uio_in[5]
*20 uio_in[6]
*21 uio_in[7]
*22 net3
*23 net4
*24 net5
*25 net6
*26 net7
*27 net8
*28 net9
*29 net10
*30 uio_out[0]
*31 uio_out[1]
*32 uio_out[2]
*33 uio_out[3]
*34 uio_out[4]
*35 uio_out[5]
*36 uio_out[6]
*37 uio_out[7]
*38 uo_out[0]
*39 uo_out[1]
*40 uo_out[2]
*41 uo_out[3]
*42 uo_out[4]
*43 uo_out[5]
*44 uo_out[6]
*45 uo_out[7]
*46 _0000_
*47 _0001_
*48 _0002_
*49 _0003_
*50 _0004_
*51 _0005_
*52 _0006_
*53 _0007_
*54 _0008_
*55 _0009_
*56 _0010_
*57 _0011_
*58 _0012_
*59 _0013_
*60 _0014_
*61 _0015_
*62 _0016_
*63 _0017_
*64 _0018_
*65 _0019_
*66 _0020_
*67 _0021_
*68 _0022_
*69 _0023_
*70 _0024_
*71 _0025_
*72 _0026_
*73 _0027_
*74 _0028_
*75 _0029_
*76 _0030_
*77 _0031_
*78 _0032_
*79 _0033_
*80 _0034_
*81 _0035_
*82 _0036_
*83 _0037_
*84 _0038_
*85 _0039_
*86 _0040_
*87 _0041_
*88 _0042_
*89 _0043_
*90 _0044_
*91 _0045_
*92 _0046_
*93 _0047_
*94 _0048_
*95 _0049_
*96 _0050_
*97 _0051_
*98 _0052_
*99 _0053_
*100 _0054_
*101 _0055_
*102 _0056_
*103 _0057_
*104 _0058_
*105 _0059_
*106 _0060_
*107 _0061_
*108 _0062_
*109 _0063_
*110 _0064_
*111 _0065_
*112 _0066_
*113 _0067_
*114 _0068_
*115 _0069_
*116 _0070_
*117 _0071_
*118 _0072_
*119 _0073_
*120 _0074_
*121 _0075_
*122 _0076_
*123 _0077_
*124 _0078_
*125 _0079_
*126 _0080_
*127 _0081_
*128 _0082_
*129 _0083_
*130 _0084_
*131 _0085_
*132 _0086_
*133 _0087_
*134 _0088_
*135 _0089_
*136 _0090_
*137 _0091_
*138 _0092_
*139 _0093_
*140 _0094_
*141 _0095_
*142 _0096_
*143 _0097_
*144 _0098_
*145 _0099_
*146 _0100_
*147 _0101_
*148 _0102_
*149 _0103_
*150 _0104_
*151 _0105_
*152 _0106_
*153 _0107_
*154 _0108_
*155 _0109_
*156 _0110_
*157 _0111_
*158 _0112_
*159 _0113_
*160 _0114_
*161 _0115_
*162 _0116_
*163 _0117_
*164 _0118_
*165 _0119_
*166 _0120_
*167 _0121_
*168 _0122_
*169 _0123_
*170 _0124_
*171 _0125_
*172 _0126_
*173 _0127_
*174 _0128_
*175 _0129_
*176 _0130_
*177 _0131_
*178 _0132_
*179 _0133_
*180 _0134_
*181 _0135_
*182 _0136_
*183 _0137_
*184 _0138_
*185 _0139_
*186 _0140_
*187 _0141_
*188 _0142_
*189 _0143_
*190 _0144_
*191 _0145_
*192 _0146_
*193 _0147_
*194 _0148_
*195 _0149_
*196 _0150_
*197 _0151_
*198 _0152_
*199 _0153_
*200 _0154_
*201 _0155_
*202 _0156_
*203 _0157_
*204 _0158_
*205 _0159_
*206 _0160_
*207 _0161_
*208 _0162_
*209 _0163_
*210 _0164_
*211 _0165_
*212 _0166_
*213 _0167_
*214 _0168_
*215 _0169_
*216 _0170_
*217 _0171_
*218 _0172_
*219 _0173_
*220 _0174_
*221 _0175_
*222 _0176_
*223 _0177_
*224 _0178_
*225 _0179_
*226 _0180_
*227 _0181_
*228 _0182_
*229 _0183_
*230 _0184_
*231 _0185_
*232 _0186_
*233 _0187_
*234 _0188_
*235 _0189_
*236 _0190_
*237 _0191_
*238 _0192_
*239 _0193_
*240 _0194_
*241 _0195_
*242 _0196_
*243 _0197_
*244 _0198_
*245 _0199_
*246 _0200_
*247 _0201_
*248 _0202_
*249 _0203_
*250 _0204_
*251 _0205_
*252 _0206_
*253 _0207_
*254 _0208_
*255 _0209_
*256 _0210_
*257 _0211_
*258 _0212_
*259 _0213_
*260 _0214_
*261 _0215_
*262 _0216_
*263 _0217_
*264 _0218_
*265 _0219_
*266 _0220_
*267 _0221_
*268 _0222_
*269 _0223_
*270 _0224_
*271 _0225_
*272 _0226_
*273 _0227_
*274 _0228_
*275 _0229_
*276 _0230_
*277 _0231_
*278 _0232_
*279 _0233_
*280 _0234_
*281 _0235_
*282 _0236_
*283 _0237_
*284 _0238_
*285 _0239_
*286 _0240_
*287 _0241_
*288 _0242_
*289 _0243_
*290 _0244_
*291 _0245_
*292 _0246_
*293 _0247_
*294 _0248_
*295 _0249_
*296 _0250_
*297 _0251_
*298 _0252_
*299 _0253_
*300 _0254_
*301 _0255_
*302 _0256_
*303 _0257_
*304 _0258_
*305 _0259_
*306 _0260_
*307 _0261_
*308 _0262_
*309 _0263_
*310 _0264_
*311 _0265_
*312 _0266_
*313 _0267_
*314 _0268_
*315 _0269_
*316 _0270_
*317 _0271_
*318 _0272_
*319 _0273_
*320 _0274_
*321 _0275_
*322 _0276_
*323 _0277_
*324 _0278_
*325 _0279_
*326 _0280_
*327 _0281_
*328 _0282_
*329 _0283_
*330 _0284_
*331 _0285_
*332 _0286_
*333 _0287_
*334 _0288_
*335 _0289_
*336 _0290_
*337 _0291_
*338 _0292_
*339 _0293_
*340 _0294_
*341 _0295_
*342 _0296_
*343 _0297_
*344 _0298_
*345 _0299_
*346 _0300_
*347 _0301_
*348 _0302_
*349 _0303_
*350 _0304_
*351 _0305_
*352 _0306_
*353 _0307_
*354 _0308_
*355 _0309_
*356 _0310_
*357 _0311_
*358 _0312_
*359 _0313_
*360 _0314_
*361 _0315_
*362 _0316_
*363 _0317_
*364 _0318_
*365 _0319_
*366 _0320_
*367 _0321_
*368 _0322_
*369 _0323_
*370 _0324_
*371 _0325_
*372 _0326_
*373 _0327_
*374 _0328_
*375 _0329_
*376 _0330_
*377 _0331_
*378 _0332_
*379 _0333_
*380 _0334_
*381 _0335_
*382 _0336_
*383 _0337_
*384 _0338_
*385 _0339_
*386 _0340_
*387 _0341_
*388 _0342_
*389 _0343_
*390 _0344_
*391 _0345_
*392 _0346_
*393 _0347_
*394 _0348_
*395 _0349_
*396 _0350_
*397 _0351_
*398 _0352_
*399 _0353_
*400 _0354_
*401 _0355_
*402 _0356_
*403 _0357_
*404 _0358_
*405 _0359_
*406 _0360_
*407 _0361_
*408 _0362_
*409 _0363_
*410 _0364_
*411 _0365_
*412 _0366_
*413 _0367_
*414 _0368_
*415 _0369_
*416 _0370_
*417 _0371_
*418 _0372_
*419 _0373_
*420 _0374_
*421 _0375_
*422 _0376_
*423 _0377_
*424 _0378_
*425 _0379_
*426 _0380_
*427 _0381_
*428 _0382_
*429 _0383_
*430 _0384_
*431 _0385_
*432 _0386_
*433 _0387_
*434 _0388_
*435 _0389_
*436 _0390_
*437 _0391_
*438 _0392_
*439 _0393_
*440 _0394_
*441 _0395_
*442 _0396_
*443 _0397_
*444 _0398_
*445 _0399_
*446 _0400_
*447 _0401_
*448 _0402_
*449 _0403_
*450 _0404_
*451 _0405_
*452 _0406_
*453 _0407_
*454 _0408_
*455 _0409_
*456 _0410_
*457 _0411_
*458 _0412_
*459 _0413_
*460 _0414_
*461 _0415_
*462 _0416_
*463 _0417_
*464 _0418_
*465 _0419_
*466 _0420_
*467 _0421_
*468 _0422_
*469 _0423_
*470 _0424_
*471 _0425_
*472 _0426_
*473 _0427_
*474 _0428_
*475 _0429_
*476 _0430_
*477 _0431_
*478 _0432_
*479 _0433_
*480 _0434_
*481 _0435_
*482 _0436_
*483 _0437_
*484 _0438_
*485 _0439_
*486 _0440_
*487 _0441_
*488 _0442_
*489 _0443_
*490 _0444_
*491 _0445_
*492 _0446_
*493 _0447_
*494 _0448_
*495 _0449_
*496 _0450_
*497 _0451_
*498 _0452_
*499 _0453_
*500 _0454_
*501 _0455_
*502 _0456_
*503 _0457_
*504 _0458_
*505 _0459_
*506 _0460_
*507 _0461_
*508 _0462_
*509 _0463_
*510 _0464_
*511 _0465_
*512 _0466_
*513 _0467_
*514 _0468_
*515 _0469_
*516 _0470_
*517 _0471_
*518 _0472_
*519 _0473_
*520 _0474_
*521 _0475_
*522 _0476_
*523 _0477_
*524 _0478_
*525 _0479_
*526 _0480_
*527 _0481_
*528 _0482_
*529 _0483_
*530 _0484_
*531 _0485_
*532 _0486_
*533 _0487_
*534 _0488_
*535 _0489_
*536 _0490_
*537 _0491_
*538 _0492_
*539 _0493_
*540 _0494_
*541 _0495_
*542 _0496_
*543 _0497_
*544 _0498_
*545 _0499_
*546 _0500_
*547 _0501_
*548 _0502_
*549 _0503_
*550 _0504_
*551 _0505_
*552 _0506_
*553 _0507_
*554 _0508_
*555 _0509_
*556 _0510_
*557 _0511_
*558 _0512_
*559 _0513_
*560 _0514_
*561 _0515_
*562 _0516_
*563 _0517_
*564 _0518_
*565 _0519_
*566 _0520_
*567 _0521_
*568 _0522_
*569 _0523_
*570 _0524_
*571 _0525_
*572 _0526_
*573 _0527_
*574 _0528_
*575 _0529_
*576 _0530_
*577 _0531_
*578 _0532_
*579 _0533_
*580 _0534_
*581 _0535_
*582 _0536_
*583 _0537_
*584 _0538_
*585 _0539_
*586 _0540_
*587 _0541_
*588 _0542_
*589 _0543_
*590 _0544_
*591 _0545_
*592 _0546_
*593 _0547_
*594 _0548_
*595 _0549_
*596 _0550_
*597 _0551_
*598 _0552_
*599 _0553_
*600 _0554_
*601 _0555_
*602 _0556_
*603 _0557_
*604 _0558_
*605 _0559_
*606 _0560_
*607 _0561_
*608 _0562_
*609 _0563_
*610 _0564_
*611 _0565_
*612 _0566_
*613 _0567_
*614 _0568_
*615 _0569_
*616 _0570_
*617 _0571_
*618 _0572_
*619 _0573_
*620 _0574_
*621 _0575_
*622 _0576_
*623 _0577_
*624 _0578_
*625 bitGenerator\.bird_pos\[0\]
*626 bitGenerator\.bird_pos\[1\]
*627 bitGenerator\.bird_pos\[2\]
*628 bitGenerator\.bird_pos\[3\]
*629 bitGenerator\.bird_pos\[4\]
*630 bitGenerator\.bird_pos\[5\]
*631 bitGenerator\.bird_pos\[6\]
*632 bitGenerator\.bird_pos\[7\]
*633 bitGenerator\.bird_pos\[8\]
*634 bitGenerator\.blue
*635 bitGenerator\.bright
*636 bitGenerator\.green
*637 bitGenerator\.h_count\[0\]
*638 bitGenerator\.h_count\[1\]
*639 bitGenerator\.h_count\[2\]
*640 bitGenerator\.h_count\[3\]
*641 bitGenerator\.h_count\[4\]
*642 bitGenerator\.h_count\[5\]
*643 bitGenerator\.h_count\[6\]
*644 bitGenerator\.h_count\[7\]
*645 bitGenerator\.h_count\[8\]
*646 bitGenerator\.h_count\[9\]
*647 bitGenerator\.hole_pos\[0\]
*648 bitGenerator\.hole_pos\[1\]
*649 bitGenerator\.hole_pos\[2\]
*650 bitGenerator\.hole_pos\[3\]
*651 bitGenerator\.hole_pos\[4\]
*652 bitGenerator\.hole_pos\[5\]
*653 bitGenerator\.hole_pos\[6\]
*654 bitGenerator\.hole_pos\[7\]
*655 bitGenerator\.hole_pos\[8\]
*656 bitGenerator\.pipe_pos\[2\]
*657 bitGenerator\.pipe_pos\[3\]
*658 bitGenerator\.pipe_pos\[4\]
*659 bitGenerator\.pipe_pos\[5\]
*660 bitGenerator\.pipe_pos\[6\]
*661 bitGenerator\.pipe_pos\[7\]
*662 bitGenerator\.pipe_pos\[8\]
*663 bitGenerator\.pipe_pos\[9\]
*664 bitGenerator\.red
*665 bitGenerator\.v_count\[0\]
*666 bitGenerator\.v_count\[1\]
*667 bitGenerator\.v_count\[2\]
*668 bitGenerator\.v_count\[3\]
*669 bitGenerator\.v_count\[4\]
*670 bitGenerator\.v_count\[5\]
*671 bitGenerator\.v_count\[6\]
*672 bitGenerator\.v_count\[7\]
*673 bitGenerator\.v_count\[8\]
*674 bitGenerator\.v_count\[9\]
*675 clknet_0_clk
*676 clknet_3_0__leaf_clk
*677 clknet_3_1__leaf_clk
*678 clknet_3_2__leaf_clk
*679 clknet_3_3__leaf_clk
*680 clknet_3_4__leaf_clk
*681 clknet_3_5__leaf_clk
*682 clknet_3_6__leaf_clk
*683 clknet_3_7__leaf_clk
*684 controller\.h_sync
*685 controller\.v_sync
*686 game\.bird_vert_velocity\[0\]
*687 game\.bird_vert_velocity\[1\]
*688 game\.bird_vert_velocity\[2\]
*689 game\.bird_vert_velocity\[3\]
*690 game\.bird_vert_velocity\[4\]
*691 game\.bird_vert_velocity\[5\]
*692 game\.bird_vert_velocity\[6\]
*693 game\.bird_vert_velocity\[7\]
*694 game\.bird_vert_velocity\[8\]
*695 game\.game_over
*696 game\.has_flapped
*697 game\.has_updated_during_current_v_sync
*698 game\.next_hole_pos\[0\]
*699 game\.next_hole_pos\[1\]
*700 game\.next_hole_pos\[2\]
*701 game\.next_hole_pos\[3\]
*702 game\.next_hole_pos\[4\]
*703 game\.next_hole_pos\[5\]
*704 game\.next_hole_pos\[6\]
*705 game\.next_hole_pos\[7\]
*706 game\.restart_game
*707 game\.update_pulse
*708 net1
*709 net11
*710 net12
*711 net13
*712 net14
*713 net15
*714 net16
*715 net17
*716 net18
*717 net19
*718 net2
*719 net20
*720 net21
*721 net22
*722 net23
*723 net24
*724 net25
*725 net26
*726 net27
*727 net28
*728 net29
*729 net30
*730 net31
*731 FILLER_0_0_109
*732 FILLER_0_0_113
*733 FILLER_0_0_125
*734 FILLER_0_0_137
*735 FILLER_0_0_141
*736 FILLER_0_0_15
*737 FILLER_0_0_153
*738 FILLER_0_0_165
*739 FILLER_0_0_169
*740 FILLER_0_0_181
*741 FILLER_0_0_193
*742 FILLER_0_0_197
*743 FILLER_0_0_209
*744 FILLER_0_0_221
*745 FILLER_0_0_225
*746 FILLER_0_0_237
*747 FILLER_0_0_249
*748 FILLER_0_0_253
*749 FILLER_0_0_265
*750 FILLER_0_0_27
*751 FILLER_0_0_277
*752 FILLER_0_0_281
*753 FILLER_0_0_29
*754 FILLER_0_0_293
*755 FILLER_0_0_3
*756 FILLER_0_0_305
*757 FILLER_0_0_309
*758 FILLER_0_0_321
*759 FILLER_0_0_333
*760 FILLER_0_0_337
*761 FILLER_0_0_349
*762 FILLER_0_0_41
*763 FILLER_0_0_53
*764 FILLER_0_0_57
*765 FILLER_0_0_69
*766 FILLER_0_0_81
*767 FILLER_0_0_85
*768 FILLER_0_0_97
*769 FILLER_0_10_109
*770 FILLER_0_10_121
*771 FILLER_0_10_133
*772 FILLER_0_10_139
*773 FILLER_0_10_141
*774 FILLER_0_10_15
*775 FILLER_0_10_153
*776 FILLER_0_10_165
*777 FILLER_0_10_177
*778 FILLER_0_10_189
*779 FILLER_0_10_195
*780 FILLER_0_10_197
*781 FILLER_0_10_209
*782 FILLER_0_10_221
*783 FILLER_0_10_233
*784 FILLER_0_10_245
*785 FILLER_0_10_251
*786 FILLER_0_10_253
*787 FILLER_0_10_265
*788 FILLER_0_10_27
*789 FILLER_0_10_277
*790 FILLER_0_10_289
*791 FILLER_0_10_29
*792 FILLER_0_10_3
*793 FILLER_0_10_301
*794 FILLER_0_10_307
*795 FILLER_0_10_309
*796 FILLER_0_10_321
*797 FILLER_0_10_333
*798 FILLER_0_10_345
*799 FILLER_0_10_41
*800 FILLER_0_10_53
*801 FILLER_0_10_65
*802 FILLER_0_10_77
*803 FILLER_0_10_83
*804 FILLER_0_10_85
*805 FILLER_0_10_97
*806 FILLER_0_11_105
*807 FILLER_0_11_111
*808 FILLER_0_11_113
*809 FILLER_0_11_125
*810 FILLER_0_11_146
*811 FILLER_0_11_15
*812 FILLER_0_11_158
*813 FILLER_0_11_166
*814 FILLER_0_11_186
*815 FILLER_0_11_198
*816 FILLER_0_11_210
*817 FILLER_0_11_222
*818 FILLER_0_11_225
*819 FILLER_0_11_237
*820 FILLER_0_11_249
*821 FILLER_0_11_261
*822 FILLER_0_11_27
*823 FILLER_0_11_273
*824 FILLER_0_11_279
*825 FILLER_0_11_281
*826 FILLER_0_11_293
*827 FILLER_0_11_3
*828 FILLER_0_11_305
*829 FILLER_0_11_317
*830 FILLER_0_11_329
*831 FILLER_0_11_335
*832 FILLER_0_11_337
*833 FILLER_0_11_349
*834 FILLER_0_11_39
*835 FILLER_0_11_51
*836 FILLER_0_11_55
*837 FILLER_0_11_57
*838 FILLER_0_11_63
*839 FILLER_0_11_81
*840 FILLER_0_11_93
*841 FILLER_0_12_102
*842 FILLER_0_12_114
*843 FILLER_0_12_122
*844 FILLER_0_12_129
*845 FILLER_0_12_136
*846 FILLER_0_12_141
*847 FILLER_0_12_15
*848 FILLER_0_12_158
*849 FILLER_0_12_162
*850 FILLER_0_12_174
*851 FILLER_0_12_195
*852 FILLER_0_12_197
*853 FILLER_0_12_214
*854 FILLER_0_12_226
*855 FILLER_0_12_238
*856 FILLER_0_12_250
*857 FILLER_0_12_257
*858 FILLER_0_12_269
*859 FILLER_0_12_27
*860 FILLER_0_12_281
*861 FILLER_0_12_29
*862 FILLER_0_12_293
*863 FILLER_0_12_3
*864 FILLER_0_12_305
*865 FILLER_0_12_309
*866 FILLER_0_12_321
*867 FILLER_0_12_333
*868 FILLER_0_12_345
*869 FILLER_0_12_41
*870 FILLER_0_12_53
*871 FILLER_0_12_61
*872 FILLER_0_12_73
*873 FILLER_0_12_81
*874 FILLER_0_12_85
*875 FILLER_0_13_101
*876 FILLER_0_13_110
*877 FILLER_0_13_143
*878 FILLER_0_13_15
*879 FILLER_0_13_161
*880 FILLER_0_13_167
*881 FILLER_0_13_174
*882 FILLER_0_13_186
*883 FILLER_0_13_190
*884 FILLER_0_13_202
*885 FILLER_0_13_214
*886 FILLER_0_13_222
*887 FILLER_0_13_228
*888 FILLER_0_13_245
*889 FILLER_0_13_262
*890 FILLER_0_13_27
*891 FILLER_0_13_274
*892 FILLER_0_13_281
*893 FILLER_0_13_293
*894 FILLER_0_13_3
*895 FILLER_0_13_305
*896 FILLER_0_13_317
*897 FILLER_0_13_329
*898 FILLER_0_13_335
*899 FILLER_0_13_337
*900 FILLER_0_13_349
*901 FILLER_0_13_39
*902 FILLER_0_13_47
*903 FILLER_0_13_57
*904 FILLER_0_13_75
*905 FILLER_0_13_92
*906 FILLER_0_14_102
*907 FILLER_0_14_122
*908 FILLER_0_14_130
*909 FILLER_0_14_136
*910 FILLER_0_14_141
*911 FILLER_0_14_15
*912 FILLER_0_14_183
*913 FILLER_0_14_192
*914 FILLER_0_14_203
*915 FILLER_0_14_209
*916 FILLER_0_14_216
*917 FILLER_0_14_220
*918 FILLER_0_14_227
*919 FILLER_0_14_239
*920 FILLER_0_14_251
*921 FILLER_0_14_253
*922 FILLER_0_14_265
*923 FILLER_0_14_27
*924 FILLER_0_14_275
*925 FILLER_0_14_287
*926 FILLER_0_14_29
*927 FILLER_0_14_298
*928 FILLER_0_14_3
*929 FILLER_0_14_306
*930 FILLER_0_14_309
*931 FILLER_0_14_316
*932 FILLER_0_14_328
*933 FILLER_0_14_340
*934 FILLER_0_14_348
*935 FILLER_0_14_41
*936 FILLER_0_14_53
*937 FILLER_0_14_63
*938 FILLER_0_14_75
*939 FILLER_0_14_80
*940 FILLER_0_14_85
*941 FILLER_0_14_97
*942 FILLER_0_15_111
*943 FILLER_0_15_113
*944 FILLER_0_15_135
*945 FILLER_0_15_146
*946 FILLER_0_15_15
*947 FILLER_0_15_158
*948 FILLER_0_15_166
*949 FILLER_0_15_169
*950 FILLER_0_15_181
*951 FILLER_0_15_19
*952 FILLER_0_15_193
*953 FILLER_0_15_205
*954 FILLER_0_15_216
*955 FILLER_0_15_225
*956 FILLER_0_15_234
*957 FILLER_0_15_241
*958 FILLER_0_15_259
*959 FILLER_0_15_265
*960 FILLER_0_15_275
*961 FILLER_0_15_279
*962 FILLER_0_15_281
*963 FILLER_0_15_288
*964 FILLER_0_15_3
*965 FILLER_0_15_305
*966 FILLER_0_15_323
*967 FILLER_0_15_335
*968 FILLER_0_15_337
*969 FILLER_0_15_349
*970 FILLER_0_15_54
*971 FILLER_0_15_63
*972 FILLER_0_15_71
*973 FILLER_0_15_88
*974 FILLER_0_16_103
*975 FILLER_0_16_115
*976 FILLER_0_16_126
*977 FILLER_0_16_138
*978 FILLER_0_16_141
*979 FILLER_0_16_145
*980 FILLER_0_16_15
*981 FILLER_0_16_153
*982 FILLER_0_16_162
*983 FILLER_0_16_166
*984 FILLER_0_16_183
*985 FILLER_0_16_193
*986 FILLER_0_16_206
*987 FILLER_0_16_210
*988 FILLER_0_16_219
*989 FILLER_0_16_223
*990 FILLER_0_16_229
*991 FILLER_0_16_247
*992 FILLER_0_16_253
*993 FILLER_0_16_261
*994 FILLER_0_16_27
*995 FILLER_0_16_280
*996 FILLER_0_16_29
*997 FILLER_0_16_293
*998 FILLER_0_16_3
*999 FILLER_0_16_305
*1000 FILLER_0_16_309
*1001 FILLER_0_16_313
*1002 FILLER_0_16_45
*1003 FILLER_0_16_57
*1004 FILLER_0_16_67
*1005 FILLER_0_16_79
*1006 FILLER_0_16_83
*1007 FILLER_0_16_85
*1008 FILLER_0_16_93
*1009 FILLER_0_17_109
*1010 FILLER_0_17_116
*1011 FILLER_0_17_128
*1012 FILLER_0_17_148
*1013 FILLER_0_17_160
*1014 FILLER_0_17_169
*1015 FILLER_0_17_181
*1016 FILLER_0_17_188
*1017 FILLER_0_17_194
*1018 FILLER_0_17_198
*1019 FILLER_0_17_223
*1020 FILLER_0_17_230
*1021 FILLER_0_17_24
*1022 FILLER_0_17_242
*1023 FILLER_0_17_250
*1024 FILLER_0_17_259
*1025 FILLER_0_17_267
*1026 FILLER_0_17_277
*1027 FILLER_0_17_28
*1028 FILLER_0_17_281
*1029 FILLER_0_17_285
*1030 FILLER_0_17_290
*1031 FILLER_0_17_3
*1032 FILLER_0_17_316
*1033 FILLER_0_17_322
*1034 FILLER_0_17_334
*1035 FILLER_0_17_340
*1036 FILLER_0_17_348
*1037 FILLER_0_17_47
*1038 FILLER_0_17_55
*1039 FILLER_0_17_57
*1040 FILLER_0_17_65
*1041 FILLER_0_17_7
*1042 FILLER_0_17_70
*1043 FILLER_0_17_82
*1044 FILLER_0_17_86
*1045 FILLER_0_18_107
*1046 FILLER_0_18_113
*1047 FILLER_0_18_130
*1048 FILLER_0_18_139
*1049 FILLER_0_18_148
*1050 FILLER_0_18_15
*1051 FILLER_0_18_174
*1052 FILLER_0_18_178
*1053 FILLER_0_18_189
*1054 FILLER_0_18_195
*1055 FILLER_0_18_197
*1056 FILLER_0_18_205
*1057 FILLER_0_18_21
*1058 FILLER_0_18_222
*1059 FILLER_0_18_243
*1060 FILLER_0_18_251
*1061 FILLER_0_18_27
*1062 FILLER_0_18_282
*1063 FILLER_0_18_289
*1064 FILLER_0_18_29
*1065 FILLER_0_18_295
*1066 FILLER_0_18_3
*1067 FILLER_0_18_306
*1068 FILLER_0_18_309
*1069 FILLER_0_18_317
*1070 FILLER_0_18_323
*1071 FILLER_0_18_332
*1072 FILLER_0_18_37
*1073 FILLER_0_18_43
*1074 FILLER_0_18_61
*1075 FILLER_0_18_79
*1076 FILLER_0_18_83
*1077 FILLER_0_18_95
*1078 FILLER_0_19_110
*1079 FILLER_0_19_133
*1080 FILLER_0_19_140
*1081 FILLER_0_19_169
*1082 FILLER_0_19_196
*1083 FILLER_0_19_200
*1084 FILLER_0_19_221
*1085 FILLER_0_19_229
*1086 FILLER_0_19_240
*1087 FILLER_0_19_244
*1088 FILLER_0_19_248
*1089 FILLER_0_19_258
*1090 FILLER_0_19_292
*1091 FILLER_0_19_3
*1092 FILLER_0_19_303
*1093 FILLER_0_19_31
*1094 FILLER_0_19_320
*1095 FILLER_0_19_331
*1096 FILLER_0_19_335
*1097 FILLER_0_19_337
*1098 FILLER_0_19_349
*1099 FILLER_0_19_35
*1100 FILLER_0_19_39
*1101 FILLER_0_19_51
*1102 FILLER_0_19_55
*1103 FILLER_0_19_83
*1104 FILLER_0_19_95
*1105 FILLER_0_1_105
*1106 FILLER_0_1_111
*1107 FILLER_0_1_113
*1108 FILLER_0_1_125
*1109 FILLER_0_1_137
*1110 FILLER_0_1_149
*1111 FILLER_0_1_15
*1112 FILLER_0_1_161
*1113 FILLER_0_1_167
*1114 FILLER_0_1_169
*1115 FILLER_0_1_181
*1116 FILLER_0_1_193
*1117 FILLER_0_1_205
*1118 FILLER_0_1_217
*1119 FILLER_0_1_223
*1120 FILLER_0_1_225
*1121 FILLER_0_1_237
*1122 FILLER_0_1_249
*1123 FILLER_0_1_261
*1124 FILLER_0_1_27
*1125 FILLER_0_1_273
*1126 FILLER_0_1_279
*1127 FILLER_0_1_281
*1128 FILLER_0_1_293
*1129 FILLER_0_1_3
*1130 FILLER_0_1_305
*1131 FILLER_0_1_317
*1132 FILLER_0_1_329
*1133 FILLER_0_1_335
*1134 FILLER_0_1_337
*1135 FILLER_0_1_349
*1136 FILLER_0_1_39
*1137 FILLER_0_1_51
*1138 FILLER_0_1_55
*1139 FILLER_0_1_57
*1140 FILLER_0_1_69
*1141 FILLER_0_1_81
*1142 FILLER_0_1_93
*1143 FILLER_0_20_114
*1144 FILLER_0_20_120
*1145 FILLER_0_20_149
*1146 FILLER_0_20_15
*1147 FILLER_0_20_157
*1148 FILLER_0_20_174
*1149 FILLER_0_20_182
*1150 FILLER_0_20_192
*1151 FILLER_0_20_197
*1152 FILLER_0_20_205
*1153 FILLER_0_20_222
*1154 FILLER_0_20_236
*1155 FILLER_0_20_247
*1156 FILLER_0_20_251
*1157 FILLER_0_20_260
*1158 FILLER_0_20_266
*1159 FILLER_0_20_27
*1160 FILLER_0_20_272
*1161 FILLER_0_20_283
*1162 FILLER_0_20_29
*1163 FILLER_0_20_295
*1164 FILLER_0_20_3
*1165 FILLER_0_20_306
*1166 FILLER_0_20_329
*1167 FILLER_0_20_53
*1168 FILLER_0_20_68
*1169 FILLER_0_20_75
*1170 FILLER_0_20_82
*1171 FILLER_0_20_92
*1172 FILLER_0_21_103
*1173 FILLER_0_21_111
*1174 FILLER_0_21_113
*1175 FILLER_0_21_117
*1176 FILLER_0_21_123
*1177 FILLER_0_21_135
*1178 FILLER_0_21_145
*1179 FILLER_0_21_155
*1180 FILLER_0_21_167
*1181 FILLER_0_21_169
*1182 FILLER_0_21_175
*1183 FILLER_0_21_179
*1184 FILLER_0_21_193
*1185 FILLER_0_21_218
*1186 FILLER_0_21_225
*1187 FILLER_0_21_237
*1188 FILLER_0_21_245
*1189 FILLER_0_21_257
*1190 FILLER_0_21_26
*1191 FILLER_0_21_265
*1192 FILLER_0_21_279
*1193 FILLER_0_21_289
*1194 FILLER_0_21_30
*1195 FILLER_0_21_306
*1196 FILLER_0_21_314
*1197 FILLER_0_21_322
*1198 FILLER_0_21_335
*1199 FILLER_0_21_337
*1200 FILLER_0_21_35
*1201 FILLER_0_21_44
*1202 FILLER_0_21_57
*1203 FILLER_0_21_69
*1204 FILLER_0_21_81
*1205 FILLER_0_21_93
*1206 FILLER_0_22_101
*1207 FILLER_0_22_120
*1208 FILLER_0_22_133
*1209 FILLER_0_22_139
*1210 FILLER_0_22_141
*1211 FILLER_0_22_149
*1212 FILLER_0_22_15
*1213 FILLER_0_22_159
*1214 FILLER_0_22_171
*1215 FILLER_0_22_187
*1216 FILLER_0_22_195
*1217 FILLER_0_22_197
*1218 FILLER_0_22_206
*1219 FILLER_0_22_218
*1220 FILLER_0_22_22
*1221 FILLER_0_22_232
*1222 FILLER_0_22_249
*1223 FILLER_0_22_260
*1224 FILLER_0_22_272
*1225 FILLER_0_22_280
*1226 FILLER_0_22_286
*1227 FILLER_0_22_29
*1228 FILLER_0_22_298
*1229 FILLER_0_22_3
*1230 FILLER_0_22_306
*1231 FILLER_0_22_309
*1232 FILLER_0_22_315
*1233 FILLER_0_22_321
*1234 FILLER_0_22_341
*1235 FILLER_0_22_349
*1236 FILLER_0_22_56
*1237 FILLER_0_22_80
*1238 FILLER_0_23_107
*1239 FILLER_0_23_111
*1240 FILLER_0_23_121
*1241 FILLER_0_23_147
*1242 FILLER_0_23_15
*1243 FILLER_0_23_151
*1244 FILLER_0_23_169
*1245 FILLER_0_23_177
*1246 FILLER_0_23_190
*1247 FILLER_0_23_202
*1248 FILLER_0_23_214
*1249 FILLER_0_23_222
*1250 FILLER_0_23_225
*1251 FILLER_0_23_233
*1252 FILLER_0_23_244
*1253 FILLER_0_23_256
*1254 FILLER_0_23_26
*1255 FILLER_0_23_260
*1256 FILLER_0_23_279
*1257 FILLER_0_23_289
*1258 FILLER_0_23_3
*1259 FILLER_0_23_301
*1260 FILLER_0_23_316
*1261 FILLER_0_23_326
*1262 FILLER_0_23_334
*1263 FILLER_0_23_34
*1264 FILLER_0_23_340
*1265 FILLER_0_23_348
*1266 FILLER_0_23_46
*1267 FILLER_0_23_54
*1268 FILLER_0_23_57
*1269 FILLER_0_23_69
*1270 FILLER_0_23_81
*1271 FILLER_0_23_93
*1272 FILLER_0_24_106
*1273 FILLER_0_24_120
*1274 FILLER_0_24_132
*1275 FILLER_0_24_141
*1276 FILLER_0_24_161
*1277 FILLER_0_24_187
*1278 FILLER_0_24_19
*1279 FILLER_0_24_195
*1280 FILLER_0_24_197
*1281 FILLER_0_24_201
*1282 FILLER_0_24_207
*1283 FILLER_0_24_219
*1284 FILLER_0_24_234
*1285 FILLER_0_24_241
*1286 FILLER_0_24_245
*1287 FILLER_0_24_261
*1288 FILLER_0_24_269
*1289 FILLER_0_24_277
*1290 FILLER_0_24_286
*1291 FILLER_0_24_29
*1292 FILLER_0_24_292
*1293 FILLER_0_24_301
*1294 FILLER_0_24_307
*1295 FILLER_0_24_309
*1296 FILLER_0_24_316
*1297 FILLER_0_24_320
*1298 FILLER_0_24_333
*1299 FILLER_0_24_51
*1300 FILLER_0_24_72
*1301 FILLER_0_24_82
*1302 FILLER_0_24_94
*1303 FILLER_0_24_98
*1304 FILLER_0_25_101
*1305 FILLER_0_25_110
*1306 FILLER_0_25_113
*1307 FILLER_0_25_119
*1308 FILLER_0_25_13
*1309 FILLER_0_25_138
*1310 FILLER_0_25_150
*1311 FILLER_0_25_169
*1312 FILLER_0_25_190
*1313 FILLER_0_25_198
*1314 FILLER_0_25_212
*1315 FILLER_0_25_232
*1316 FILLER_0_25_240
*1317 FILLER_0_25_25
*1318 FILLER_0_25_251
*1319 FILLER_0_25_259
*1320 FILLER_0_25_265
*1321 FILLER_0_25_269
*1322 FILLER_0_25_279
*1323 FILLER_0_25_289
*1324 FILLER_0_25_3
*1325 FILLER_0_25_308
*1326 FILLER_0_25_321
*1327 FILLER_0_25_334
*1328 FILLER_0_25_337
*1329 FILLER_0_25_349
*1330 FILLER_0_25_37
*1331 FILLER_0_25_57
*1332 FILLER_0_25_66
*1333 FILLER_0_25_74
*1334 FILLER_0_25_89
*1335 FILLER_0_25_9
*1336 FILLER_0_25_97
*1337 FILLER_0_26_101
*1338 FILLER_0_26_129
*1339 FILLER_0_26_138
*1340 FILLER_0_26_141
*1341 FILLER_0_26_146
*1342 FILLER_0_26_164
*1343 FILLER_0_26_192
*1344 FILLER_0_26_197
*1345 FILLER_0_26_203
*1346 FILLER_0_26_209
*1347 FILLER_0_26_216
*1348 FILLER_0_26_226
*1349 FILLER_0_26_238
*1350 FILLER_0_26_251
*1351 FILLER_0_26_253
*1352 FILLER_0_26_264
*1353 FILLER_0_26_272
*1354 FILLER_0_26_281
*1355 FILLER_0_26_289
*1356 FILLER_0_26_29
*1357 FILLER_0_26_295
*1358 FILLER_0_26_3
*1359 FILLER_0_26_307
*1360 FILLER_0_26_309
*1361 FILLER_0_26_328
*1362 FILLER_0_26_34
*1363 FILLER_0_26_46
*1364 FILLER_0_26_58
*1365 FILLER_0_26_64
*1366 FILLER_0_26_76
*1367 FILLER_0_26_89
*1368 FILLER_0_27_109
*1369 FILLER_0_27_12
*1370 FILLER_0_27_137
*1371 FILLER_0_27_141
*1372 FILLER_0_27_166
*1373 FILLER_0_27_169
*1374 FILLER_0_27_199
*1375 FILLER_0_27_214
*1376 FILLER_0_27_222
*1377 FILLER_0_27_232
*1378 FILLER_0_27_24
*1379 FILLER_0_27_244
*1380 FILLER_0_27_254
*1381 FILLER_0_27_266
*1382 FILLER_0_27_276
*1383 FILLER_0_27_281
*1384 FILLER_0_27_289
*1385 FILLER_0_27_299
*1386 FILLER_0_27_3
*1387 FILLER_0_27_305
*1388 FILLER_0_27_310
*1389 FILLER_0_27_322
*1390 FILLER_0_27_330
*1391 FILLER_0_27_335
*1392 FILLER_0_27_337
*1393 FILLER_0_27_349
*1394 FILLER_0_27_35
*1395 FILLER_0_27_41
*1396 FILLER_0_27_50
*1397 FILLER_0_27_75
*1398 FILLER_0_27_95
*1399 FILLER_0_28_100
*1400 FILLER_0_28_111
*1401 FILLER_0_28_134
*1402 FILLER_0_28_141
*1403 FILLER_0_28_149
*1404 FILLER_0_28_157
*1405 FILLER_0_28_176
*1406 FILLER_0_28_200
*1407 FILLER_0_28_208
*1408 FILLER_0_28_21
*1409 FILLER_0_28_223
*1410 FILLER_0_28_227
*1411 FILLER_0_28_242
*1412 FILLER_0_28_251
*1413 FILLER_0_28_263
*1414 FILLER_0_28_278
*1415 FILLER_0_28_286
*1416 FILLER_0_28_3
*1417 FILLER_0_28_303
*1418 FILLER_0_28_307
*1419 FILLER_0_28_309
*1420 FILLER_0_28_313
*1421 FILLER_0_28_330
*1422 FILLER_0_28_349
*1423 FILLER_0_28_37
*1424 FILLER_0_28_46
*1425 FILLER_0_28_54
*1426 FILLER_0_28_67
*1427 FILLER_0_28_75
*1428 FILLER_0_28_88
*1429 FILLER_0_29_108
*1430 FILLER_0_29_12
*1431 FILLER_0_29_133
*1432 FILLER_0_29_137
*1433 FILLER_0_29_153
*1434 FILLER_0_29_157
*1435 FILLER_0_29_194
*1436 FILLER_0_29_20
*1437 FILLER_0_29_200
*1438 FILLER_0_29_229
*1439 FILLER_0_29_251
*1440 FILLER_0_29_26
*1441 FILLER_0_29_263
*1442 FILLER_0_29_275
*1443 FILLER_0_29_279
*1444 FILLER_0_29_289
*1445 FILLER_0_29_3
*1446 FILLER_0_29_301
*1447 FILLER_0_29_313
*1448 FILLER_0_29_327
*1449 FILLER_0_29_335
*1450 FILLER_0_29_337
*1451 FILLER_0_29_34
*1452 FILLER_0_29_341
*1453 FILLER_0_29_349
*1454 FILLER_0_29_43
*1455 FILLER_0_29_49
*1456 FILLER_0_29_80
*1457 FILLER_0_29_99
*1458 FILLER_0_2_109
*1459 FILLER_0_2_121
*1460 FILLER_0_2_133
*1461 FILLER_0_2_139
*1462 FILLER_0_2_141
*1463 FILLER_0_2_15
*1464 FILLER_0_2_153
*1465 FILLER_0_2_165
*1466 FILLER_0_2_177
*1467 FILLER_0_2_189
*1468 FILLER_0_2_195
*1469 FILLER_0_2_197
*1470 FILLER_0_2_209
*1471 FILLER_0_2_221
*1472 FILLER_0_2_233
*1473 FILLER_0_2_245
*1474 FILLER_0_2_251
*1475 FILLER_0_2_253
*1476 FILLER_0_2_265
*1477 FILLER_0_2_27
*1478 FILLER_0_2_277
*1479 FILLER_0_2_289
*1480 FILLER_0_2_29
*1481 FILLER_0_2_3
*1482 FILLER_0_2_301
*1483 FILLER_0_2_307
*1484 FILLER_0_2_309
*1485 FILLER_0_2_321
*1486 FILLER_0_2_333
*1487 FILLER_0_2_345
*1488 FILLER_0_2_41
*1489 FILLER_0_2_53
*1490 FILLER_0_2_65
*1491 FILLER_0_2_77
*1492 FILLER_0_2_83
*1493 FILLER_0_2_85
*1494 FILLER_0_2_97
*1495 FILLER_0_30_102
*1496 FILLER_0_30_110
*1497 FILLER_0_30_122
*1498 FILLER_0_30_134
*1499 FILLER_0_30_141
*1500 FILLER_0_30_145
*1501 FILLER_0_30_157
*1502 FILLER_0_30_169
*1503 FILLER_0_30_176
*1504 FILLER_0_30_192
*1505 FILLER_0_30_197
*1506 FILLER_0_30_20
*1507 FILLER_0_30_205
*1508 FILLER_0_30_227
*1509 FILLER_0_30_249
*1510 FILLER_0_30_261
*1511 FILLER_0_30_269
*1512 FILLER_0_30_27
*1513 FILLER_0_30_283
*1514 FILLER_0_30_3
*1515 FILLER_0_30_307
*1516 FILLER_0_30_309
*1517 FILLER_0_30_329
*1518 FILLER_0_30_333
*1519 FILLER_0_30_34
*1520 FILLER_0_30_52
*1521 FILLER_0_30_64
*1522 FILLER_0_30_71
*1523 FILLER_0_30_83
*1524 FILLER_0_30_90
*1525 FILLER_0_31_124
*1526 FILLER_0_31_143
*1527 FILLER_0_31_15
*1528 FILLER_0_31_154
*1529 FILLER_0_31_191
*1530 FILLER_0_31_203
*1531 FILLER_0_31_215
*1532 FILLER_0_31_223
*1533 FILLER_0_31_225
*1534 FILLER_0_31_233
*1535 FILLER_0_31_249
*1536 FILLER_0_31_269
*1537 FILLER_0_31_27
*1538 FILLER_0_31_277
*1539 FILLER_0_31_281
*1540 FILLER_0_31_287
*1541 FILLER_0_31_292
*1542 FILLER_0_31_299
*1543 FILLER_0_31_3
*1544 FILLER_0_31_311
*1545 FILLER_0_31_321
*1546 FILLER_0_31_335
*1547 FILLER_0_31_349
*1548 FILLER_0_31_39
*1549 FILLER_0_31_54
*1550 FILLER_0_31_73
*1551 FILLER_0_31_95
*1552 FILLER_0_32_100
*1553 FILLER_0_32_118
*1554 FILLER_0_32_136
*1555 FILLER_0_32_141
*1556 FILLER_0_32_152
*1557 FILLER_0_32_164
*1558 FILLER_0_32_176
*1559 FILLER_0_32_185
*1560 FILLER_0_32_22
*1561 FILLER_0_32_220
*1562 FILLER_0_32_240
*1563 FILLER_0_32_253
*1564 FILLER_0_32_259
*1565 FILLER_0_32_266
*1566 FILLER_0_32_272
*1567 FILLER_0_32_289
*1568 FILLER_0_32_29
*1569 FILLER_0_32_299
*1570 FILLER_0_32_3
*1571 FILLER_0_32_307
*1572 FILLER_0_32_309
*1573 FILLER_0_32_318
*1574 FILLER_0_32_331
*1575 FILLER_0_32_38
*1576 FILLER_0_32_50
*1577 FILLER_0_32_62
*1578 FILLER_0_32_70
*1579 FILLER_0_32_77
*1580 FILLER_0_32_83
*1581 FILLER_0_32_88
*1582 FILLER_0_33_101
*1583 FILLER_0_33_108
*1584 FILLER_0_33_121
*1585 FILLER_0_33_134
*1586 FILLER_0_33_138
*1587 FILLER_0_33_156
*1588 FILLER_0_33_160
*1589 FILLER_0_33_176
*1590 FILLER_0_33_191
*1591 FILLER_0_33_196
*1592 FILLER_0_33_211
*1593 FILLER_0_33_215
*1594 FILLER_0_33_225
*1595 FILLER_0_33_23
*1596 FILLER_0_33_235
*1597 FILLER_0_33_267
*1598 FILLER_0_33_273
*1599 FILLER_0_33_279
*1600 FILLER_0_33_292
*1601 FILLER_0_33_31
*1602 FILLER_0_33_310
*1603 FILLER_0_33_318
*1604 FILLER_0_33_324
*1605 FILLER_0_33_334
*1606 FILLER_0_33_340
*1607 FILLER_0_33_348
*1608 FILLER_0_33_54
*1609 FILLER_0_33_57
*1610 FILLER_0_33_65
*1611 FILLER_0_33_72
*1612 FILLER_0_33_94
*1613 FILLER_0_34_117
*1614 FILLER_0_34_138
*1615 FILLER_0_34_15
*1616 FILLER_0_34_155
*1617 FILLER_0_34_166
*1618 FILLER_0_34_210
*1619 FILLER_0_34_222
*1620 FILLER_0_34_234
*1621 FILLER_0_34_247
*1622 FILLER_0_34_251
*1623 FILLER_0_34_253
*1624 FILLER_0_34_260
*1625 FILLER_0_34_27
*1626 FILLER_0_34_272
*1627 FILLER_0_34_284
*1628 FILLER_0_34_288
*1629 FILLER_0_34_29
*1630 FILLER_0_34_3
*1631 FILLER_0_34_302
*1632 FILLER_0_34_309
*1633 FILLER_0_34_326
*1634 FILLER_0_34_41
*1635 FILLER_0_34_72
*1636 FILLER_0_34_82
*1637 FILLER_0_34_90
*1638 FILLER_0_35_109
*1639 FILLER_0_35_113
*1640 FILLER_0_35_125
*1641 FILLER_0_35_135
*1642 FILLER_0_35_143
*1643 FILLER_0_35_15