*SPEF "ieee 1481-1999"
*DESIGN "tt_um_hadirkhan10_lif_neuron"
*DATE "11:11:11 Fri 11 11, 1111"
*VENDOR "OpenRCX"
*PROGRAM "Parallel Extraction"
*VERSION "1.0"
*DESIGN_FLOW "NAME_SCOPE LOCAL" "PIN_CAP NONE"
*DIVIDER /
*DELIMITER :
*BUS_DELIMITER []
*T_UNIT 1 NS
*C_UNIT 1 PF
*R_UNIT 1 OHM
*L_UNIT 1 HENRY

*NAME_MAP
*3 clk
*4 ena
*5 rst_n
*6 ui_in[0]
*7 ui_in[1]
*8 ui_in[2]
*9 ui_in[3]
*10 ui_in[4]
*11 ui_in[5]
*12 ui_in[6]
*13 ui_in[7]
*14 uio_in[0]
*15 uio_in[1]
*16 uio_in[2]
*17 uio_in[3]
*18 uio_in[4]
*19 uio_in[5]
*20 uio_in[6]
*21 uio_in[7]
*22 net32
*23 net18
*24 net19
*25 net20
*26 net21
*27 net22
*28 net23
*29 net24
*30 uio_out[0]
*31 net25
*32 net26
*33 net27
*34 net28
*35 net29
*36 net30
*37 net31
*38 uo_out[0]
*39 uo_out[1]
*40 uo_out[2]
*41 uo_out[3]
*42 uo_out[4]
*43 uo_out[5]
*44 uo_out[6]
*45 uo_out[7]
*46 _000_
*47 _001_
*48 _002_
*49 _003_
*50 _004_
*51 _005_
*52 _006_
*53 _007_
*54 _008_
*55 _009_
*56 _010_
*57 _011_
*58 _012_
*59 _013_
*60 _014_
*61 _015_
*62 _016_
*63 _017_
*64 _018_
*65 _019_
*66 _020_
*67 _021_
*68 _022_
*69 _023_
*70 _024_
*71 _025_
*72 _026_
*73 _027_
*74 _028_
*75 _029_
*76 _030_
*77 _031_
*78 _032_
*79 _033_
*80 _034_
*81 _035_
*82 _036_
*83 _037_
*84 _038_
*85 _039_
*86 _040_
*87 _041_
*88 _042_
*89 _043_
*90 _044_
*91 _045_
*92 _046_
*93 _047_
*94 _048_
*95 _049_
*96 _050_
*97 _051_
*98 _052_
*99 _053_
*100 _054_
*101 _055_
*102 _056_
*103 _057_
*104 _058_
*105 _059_
*106 _060_
*107 _061_
*108 _062_
*109 _063_
*110 _064_
*111 _065_
*112 _066_
*113 _067_
*114 _068_
*115 _069_
*116 _070_
*117 _071_
*118 _072_
*119 _073_
*120 _074_
*121 _075_
*122 _076_
*123 _077_
*124 _078_
*125 _079_
*126 _080_
*127 _081_
*128 _082_
*129 _083_
*130 _084_
*131 _085_
*132 _086_
*133 _087_
*134 _088_
*135 _089_
*136 _090_
*137 _091_
*138 _092_
*139 _093_
*140 _094_
*141 _095_
*142 _096_
*143 _097_
*144 _098_
*145 _099_
*146 _100_
*147 _101_
*148 _102_
*149 _103_
*150 _104_
*151 _105_
*152 _106_
*153 _107_
*154 _108_
*155 _109_
*156 _110_
*157 _111_
*158 _112_
*159 _113_
*160 _114_
*161 _115_
*162 _116_
*163 _117_
*164 _118_
*165 _119_
*166 _120_
*167 _121_
*168 _122_
*169 _123_
*170 _124_
*171 _125_
*172 _126_
*173 _127_
*174 _128_
*175 _129_
*176 _130_
*177 _131_
*178 _132_
*179 _133_
*180 _134_
*181 _135_
*182 _136_
*183 _137_
*184 _138_
*185 _139_
*186 _140_
*187 _141_
*188 _142_
*189 _143_
*190 _144_
*191 clknet_0_clk
*192 clknet_1_0__leaf_clk
*193 clknet_1_1__leaf_clk
*194 fsm0\.state\[0\]
*195 fsm0\.state\[1\]
*196 fsm0\.state\[2\]
*197 fsm0\.state\[3\]
*198 net1
*199 net10
*200 net11
*201 net12
*202 net13
*203 net14
*204 net15
*205 net16
*206 net17
*207 net2
*208 net3
*209 net33
*210 net34
*211 net35
*212 net36
*213 net37
*214 net38
*215 net39
*216 net4
*217 net40
*218 net41
*219 net42
*220 net43
*221 net44
*222 net45
*223 net46
*224 net47
*225 net48
*226 net49
*227 net5
*228 net50
*229 net51
*230 net52
*231 net53
*232 net6
*233 net7
*234 net8
*235 net9
*236 neuron\.beta\[0\]
*237 neuron\.beta\[1\]
*238 neuron\.beta\[2\]
*239 neuron\.beta\[3\]
*240 neuron\.beta\[4\]
*241 neuron\.beta\[5\]
*242 neuron\.beta\[6\]
*243 neuron\.beta\[7\]
*244 neuron\.spike
*245 neuron\.threshold\[0\]
*246 neuron\.threshold\[1\]
*247 neuron\.threshold\[2\]
*248 neuron\.threshold\[3\]
*249 neuron\.threshold\[4\]
*250 neuron\.threshold\[5\]
*251 neuron\.threshold\[6\]
*252 neuron\.threshold\[7\]
*253 FILLER_0_0_109
*254 FILLER_0_0_113
*255 FILLER_0_0_125
*256 FILLER_0_0_137
*257 FILLER_0_0_141
*258 FILLER_0_0_15
*259 FILLER_0_0_153
*260 FILLER_0_0_165
*261 FILLER_0_0_169
*262 FILLER_0_0_181
*263 FILLER_0_0_193
*264 FILLER_0_0_197
*265 FILLER_0_0_209
*266 FILLER_0_0_221
*267 FILLER_0_0_225
*268 FILLER_0_0_237
*269 FILLER_0_0_249
*270 FILLER_0_0_253
*271 FILLER_0_0_265
*272 FILLER_0_0_27
*273 FILLER_0_0_277
*274 FILLER_0_0_281
*275 FILLER_0_0_29
*276 FILLER_0_0_293
*277 FILLER_0_0_3
*278 FILLER_0_0_305
*279 FILLER_0_0_309
*280 FILLER_0_0_321
*281 FILLER_0_0_333
*282 FILLER_0_0_337
*283 FILLER_0_0_349
*284 FILLER_0_0_41
*285 FILLER_0_0_53
*286 FILLER_0_0_57
*287 FILLER_0_0_69
*288 FILLER_0_0_81
*289 FILLER_0_0_85
*290 FILLER_0_0_97
*291 FILLER_0_10_109
*292 FILLER_0_10_121
*293 FILLER_0_10_133
*294 FILLER_0_10_139
*295 FILLER_0_10_141
*296 FILLER_0_10_15
*297 FILLER_0_10_153
*298 FILLER_0_10_165
*299 FILLER_0_10_177
*300 FILLER_0_10_189
*301 FILLER_0_10_195
*302 FILLER_0_10_197
*303 FILLER_0_10_209
*304 FILLER_0_10_221
*305 FILLER_0_10_233
*306 FILLER_0_10_245
*307 FILLER_0_10_251
*308 FILLER_0_10_253
*309 FILLER_0_10_265
*310 FILLER_0_10_27
*311 FILLER_0_10_277
*312 FILLER_0_10_289
*313 FILLER_0_10_29
*314 FILLER_0_10_3
*315 FILLER_0_10_301
*316 FILLER_0_10_307
*317 FILLER_0_10_309
*318 FILLER_0_10_321
*319 FILLER_0_10_333
*320 FILLER_0_10_345
*321 FILLER_0_10_41
*322 FILLER_0_10_53
*323 FILLER_0_10_65
*324 FILLER_0_10_77
*325 FILLER_0_10_83
*326 FILLER_0_10_85
*327 FILLER_0_10_97
*328 FILLER_0_11_105
*329 FILLER_0_11_111
*330 FILLER_0_11_113
*331 FILLER_0_11_125
*332 FILLER_0_11_137
*333 FILLER_0_11_149
*334 FILLER_0_11_15
*335 FILLER_0_11_161
*336 FILLER_0_11_167
*337 FILLER_0_11_169
*338 FILLER_0_11_181
*339 FILLER_0_11_193
*340 FILLER_0_11_205
*341 FILLER_0_11_217
*342 FILLER_0_11_223
*343 FILLER_0_11_225
*344 FILLER_0_11_237
*345 FILLER_0_11_249
*346 FILLER_0_11_261
*347 FILLER_0_11_27
*348 FILLER_0_11_273
*349 FILLER_0_11_279
*350 FILLER_0_11_281
*351 FILLER_0_11_293
*352 FILLER_0_11_3
*353 FILLER_0_11_305
*354 FILLER_0_11_317
*355 FILLER_0_11_329
*356 FILLER_0_11_335
*357 FILLER_0_11_337
*358 FILLER_0_11_349
*359 FILLER_0_11_39
*360 FILLER_0_11_51
*361 FILLER_0_11_55
*362 FILLER_0_11_57
*363 FILLER_0_11_69
*364 FILLER_0_11_81
*365 FILLER_0_11_93
*366 FILLER_0_12_109
*367 FILLER_0_12_121
*368 FILLER_0_12_133
*369 FILLER_0_12_139
*370 FILLER_0_12_141
*371 FILLER_0_12_15
*372 FILLER_0_12_153
*373 FILLER_0_12_165
*374 FILLER_0_12_177
*375 FILLER_0_12_189
*376 FILLER_0_12_195
*377 FILLER_0_12_197
*378 FILLER_0_12_209
*379 FILLER_0_12_221
*380 FILLER_0_12_233
*381 FILLER_0_12_245
*382 FILLER_0_12_251
*383 FILLER_0_12_253
*384 FILLER_0_12_265
*385 FILLER_0_12_27
*386 FILLER_0_12_277
*387 FILLER_0_12_289
*388 FILLER_0_12_29
*389 FILLER_0_12_3
*390 FILLER_0_12_301
*391 FILLER_0_12_307
*392 FILLER_0_12_309
*393 FILLER_0_12_321
*394 FILLER_0_12_333
*395 FILLER_0_12_345
*396 FILLER_0_12_41
*397 FILLER_0_12_53
*398 FILLER_0_12_65
*399 FILLER_0_12_77
*400 FILLER_0_12_83
*401 FILLER_0_12_85
*402 FILLER_0_12_97
*403 FILLER_0_13_105
*404 FILLER_0_13_111
*405 FILLER_0_13_113
*406 FILLER_0_13_125
*407 FILLER_0_13_137
*408 FILLER_0_13_149
*409 FILLER_0_13_15
*410 FILLER_0_13_161
*411 FILLER_0_13_167
*412 FILLER_0_13_169
*413 FILLER_0_13_181
*414 FILLER_0_13_193
*415 FILLER_0_13_205
*416 FILLER_0_13_217
*417 FILLER_0_13_223
*418 FILLER_0_13_225
*419 FILLER_0_13_237
*420 FILLER_0_13_249
*421 FILLER_0_13_261
*422 FILLER_0_13_27
*423 FILLER_0_13_273
*424 FILLER_0_13_279
*425 FILLER_0_13_281
*426 FILLER_0_13_293
*427 FILLER_0_13_3
*428 FILLER_0_13_305
*429 FILLER_0_13_317
*430 FILLER_0_13_329
*431 FILLER_0_13_335
*432 FILLER_0_13_337
*433 FILLER_0_13_349
*434 FILLER_0_13_39
*435 FILLER_0_13_51
*436 FILLER_0_13_55
*437 FILLER_0_13_57
*438 FILLER_0_13_69
*439 FILLER_0_13_81
*440 FILLER_0_13_93
*441 FILLER_0_14_109
*442 FILLER_0_14_121
*443 FILLER_0_14_133
*444 FILLER_0_14_139
*445 FILLER_0_14_141
*446 FILLER_0_14_15
*447 FILLER_0_14_153
*448 FILLER_0_14_165
*449 FILLER_0_14_177
*450 FILLER_0_14_189
*451 FILLER_0_14_195
*452 FILLER_0_14_197
*453 FILLER_0_14_209
*454 FILLER_0_14_221
*455 FILLER_0_14_233
*456 FILLER_0_14_245
*457 FILLER_0_14_251
*458 FILLER_0_14_253
*459 FILLER_0_14_265
*460 FILLER_0_14_27
*461 FILLER_0_14_277
*462 FILLER_0_14_289
*463 FILLER_0_14_29
*464 FILLER_0_14_3
*465 FILLER_0_14_301
*466 FILLER_0_14_307
*467 FILLER_0_14_309
*468 FILLER_0_14_321
*469 FILLER_0_14_333
*470 FILLER_0_14_345
*471 FILLER_0_14_41
*472 FILLER_0_14_53
*473 FILLER_0_14_65
*474 FILLER_0_14_77
*475 FILLER_0_14_83
*476 FILLER_0_14_85
*477 FILLER_0_14_97
*478 FILLER_0_15_105
*479 FILLER_0_15_111
*480 FILLER_0_15_113
*481 FILLER_0_15_125
*482 FILLER_0_15_137
*483 FILLER_0_15_149
*484 FILLER_0_15_15
*485 FILLER_0_15_161
*486 FILLER_0_15_167
*487 FILLER_0_15_169
*488 FILLER_0_15_181
*489 FILLER_0_15_193
*490 FILLER_0_15_205
*491 FILLER_0_15_217
*492 FILLER_0_15_223
*493 FILLER_0_15_225
*494 FILLER_0_15_237
*495 FILLER_0_15_249
*496 FILLER_0_15_261
*497 FILLER_0_15_27
*498 FILLER_0_15_273
*499 FILLER_0_15_279
*500 FILLER_0_15_281
*501 FILLER_0_15_293
*502 FILLER_0_15_3
*503 FILLER_0_15_305
*504 FILLER_0_15_317
*505 FILLER_0_15_329
*506 FILLER_0_15_335
*507 FILLER_0_15_337
*508 FILLER_0_15_349
*509 FILLER_0_15_39
*510 FILLER_0_15_51
*511 FILLER_0_15_55
*512 FILLER_0_15_57
*513 FILLER_0_15_69
*514 FILLER_0_15_81
*515 FILLER_0_15_93
*516 FILLER_0_16_109
*517 FILLER_0_16_121
*518 FILLER_0_16_133
*519 FILLER_0_16_139
*520 FILLER_0_16_141
*521 FILLER_0_16_15
*522 FILLER_0_16_153
*523 FILLER_0_16_165
*524 FILLER_0_16_177
*525 FILLER_0_16_189
*526 FILLER_0_16_195
*527 FILLER_0_16_197
*528 FILLER_0_16_209
*529 FILLER_0_16_221
*530 FILLER_0_16_233
*531 FILLER_0_16_245
*532 FILLER_0_16_251
*533 FILLER_0_16_253
*534 FILLER_0_16_265
*535 FILLER_0_16_27
*536 FILLER_0_16_277
*537 FILLER_0_16_289
*538 FILLER_0_16_29
*539 FILLER_0_16_3
*540 FILLER_0_16_301
*541 FILLER_0_16_307
*542 FILLER_0_16_309
*543 FILLER_0_16_321
*544 FILLER_0_16_333
*545 FILLER_0_16_345
*546 FILLER_0_16_41
*547 FILLER_0_16_53
*548 FILLER_0_16_65
*549 FILLER_0_16_77
*550 FILLER_0_16_83
*551 FILLER_0_16_85
*552 FILLER_0_16_97
*553 FILLER_0_17_105
*554 FILLER_0_17_111
*555 FILLER_0_17_113
*556 FILLER_0_17_125
*557 FILLER_0_17_137
*558 FILLER_0_17_149
*559 FILLER_0_17_15
*560 FILLER_0_17_161
*561 FILLER_0_17_167
*562 FILLER_0_17_169
*563 FILLER_0_17_181
*564 FILLER_0_17_193
*565 FILLER_0_17_205
*566 FILLER_0_17_217
*567 FILLER_0_17_223
*568 FILLER_0_17_225
*569 FILLER_0_17_237
*570 FILLER_0_17_249
*571 FILLER_0_17_261
*572 FILLER_0_17_27
*573 FILLER_0_17_273
*574 FILLER_0_17_279
*575 FILLER_0_17_281
*576 FILLER_0_17_293
*577 FILLER_0_17_3
*578 FILLER_0_17_305
*579 FILLER_0_17_317
*580 FILLER_0_17_329
*581 FILLER_0_17_335
*582 FILLER_0_17_337
*583 FILLER_0_17_349
*584 FILLER_0_17_39
*585 FILLER_0_17_51
*586 FILLER_0_17_55
*587 FILLER_0_17_57
*588 FILLER_0_17_69
*589 FILLER_0_17_81
*590 FILLER_0_17_93
*591 FILLER_0_18_109
*592 FILLER_0_18_121
*593 FILLER_0_18_133
*594 FILLER_0_18_139
*595 FILLER_0_18_141
*596 FILLER_0_18_15
*597 FILLER_0_18_153
*598 FILLER_0_18_165
*599 FILLER_0_18_177
*600 FILLER_0_18_189
*601 FILLER_0_18_195
*602 FILLER_0_18_197
*603 FILLER_0_18_209
*604 FILLER_0_18_221
*605 FILLER_0_18_233
*606 FILLER_0_18_245
*607 FILLER_0_18_251
*608 FILLER_0_18_253
*609 FILLER_0_18_265
*610 FILLER_0_18_27
*611 FILLER_0_18_277
*612 FILLER_0_18_289
*613 FILLER_0_18_29
*614 FILLER_0_18_3
*615 FILLER_0_18_301
*616 FILLER_0_18_307
*617 FILLER_0_18_309
*618 FILLER_0_18_321
*619 FILLER_0_18_333
*620 FILLER_0_18_345
*621 FILLER_0_18_41
*622 FILLER_0_18_53
*623 FILLER_0_18_65
*624 FILLER_0_18_77
*625 FILLER_0_18_83
*626 FILLER_0_18_85
*627 FILLER_0_18_97
*628 FILLER_0_19_105
*629 FILLER_0_19_111
*630 FILLER_0_19_113
*631 FILLER_0_19_125
*632 FILLER_0_19_137
*633 FILLER_0_19_149
*634 FILLER_0_19_15
*635 FILLER_0_19_161
*636 FILLER_0_19_167
*637 FILLER_0_19_169
*638 FILLER_0_19_181
*639 FILLER_0_19_193
*640 FILLER_0_19_205
*641 FILLER_0_19_217
*642 FILLER_0_19_223
*643 FILLER_0_19_225
*644 FILLER_0_19_237
*645 FILLER_0_19_249
*646 FILLER_0_19_261
*647 FILLER_0_19_27
*648 FILLER_0_19_273
*649 FILLER_0_19_279
*650 FILLER_0_19_281
*651 FILLER_0_19_293
*652 FILLER_0_19_3
*653 FILLER_0_19_305
*654 FILLER_0_19_317
*655 FILLER_0_19_329
*656 FILLER_0_19_335
*657 FILLER_0_19_337
*658 FILLER_0_19_349
*659 FILLER_0_19_39
*660 FILLER_0_19_51
*661 FILLER_0_19_55
*662 FILLER_0_19_57
*663 FILLER_0_19_69
*664 FILLER_0_19_81
*665 FILLER_0_19_93
*666 FILLER_0_1_105
*667 FILLER_0_1_111
*668 FILLER_0_1_113
*669 FILLER_0_1_125
*670 FILLER_0_1_137
*671 FILLER_0_1_149
*672 FILLER_0_1_15
*673 FILLER_0_1_161
*674 FILLER_0_1_167
*675 FILLER_0_1_169
*676 FILLER_0_1_181
*677 FILLER_0_1_193
*678 FILLER_0_1_205
*679 FILLER_0_1_217
*680 FILLER_0_1_223
*681 FILLER_0_1_225
*682 FILLER_0_1_237
*683 FILLER_0_1_249
*684 FILLER_0_1_261
*685 FILLER_0_1_27
*686 FILLER_0_1_273
*687 FILLER_0_1_279
*688 FILLER_0_1_281
*689 FILLER_0_1_293
*690 FILLER_0_1_3
*691 FILLER_0_1_305
*692 FILLER_0_1_317
*693 FILLER_0_1_329
*694 FILLER_0_1_335
*695 FILLER_0_1_337
*696 FILLER_0_1_349
*697 FILLER_0_1_39
*698 FILLER_0_1_51
*699 FILLER_0_1_55
*700 FILLER_0_1_57
*701 FILLER_0_1_69
*702 FILLER_0_1_81
*703 FILLER_0_1_93
*704 FILLER_0_20_109
*705 FILLER_0_20_121
*706 FILLER_0_20_133
*707 FILLER_0_20_139
*708 FILLER_0_20_141
*709 FILLER_0_20_15
*710 FILLER_0_20_153
*711 FILLER_0_20_165
*712 FILLER_0_20_177
*713 FILLER_0_20_189
*714 FILLER_0_20_195
*715 FILLER_0_20_197
*716 FILLER_0_20_209
*717 FILLER_0_20_221
*718 FILLER_0_20_233
*719 FILLER_0_20_245
*720 FILLER_0_20_251
*721 FILLER_0_20_253
*722 FILLER_0_20_265
*723 FILLER_0_20_27
*724 FILLER_0_20_277
*725 FILLER_0_20_289
*726 FILLER_0_20_29
*727 FILLER_0_20_3
*728 FILLER_0_20_301
*729 FILLER_0_20_307
*730 FILLER_0_20_309
*731 FILLER_0_20_321
*732 FILLER_0_20_333
*733 FILLER_0_20_345
*734 FILLER_0_20_41
*735 FILLER_0_20_53
*736 FILLER_0_20_65
*737 FILLER_0_20_77
*738 FILLER_0_20_83
*739 FILLER_0_20_85
*740 FILLER_0_20_97
*741 FILLER_0_21_105
*742 FILLER_0_21_111
*743 FILLER_0_21_113
*744 FILLER_0_21_125
*745 FILLER_0_21_137
*746 FILLER_0_21_149
*747 FILLER_0_21_15
*748 FILLER_0_21_161
*749 FILLER_0_21_167
*750 FILLER_0_21_169
*751 FILLER_0_21_181
*752 FILLER_0_21_193
*753 FILLER_0_21_205
*754 FILLER_0_21_217
*755 FILLER_0_21_223
*756 FILLER_0_21_225
*757 FILLER_0_21_237
*758 FILLER_0_21_249
*759 FILLER_0_21_261
*760 FILLER_0_21_27
*761 FILLER_0_21_273
*762 FILLER_0_21_279
*763 FILLER_0_21_281
*764 FILLER_0_21_293
*765 FILLER_0_21_3
*766 FILLER_0_21_305
*767 FILLER_0_21_317
*768 FILLER_0_21_329
*769 FILLER_0_21_335
*770 FILLER_0_21_337
*771 FILLER_0_21_349
*772 FILLER_0_21_39
*773 FILLER_0_21_51
*774 FILLER_0_21_55
*775 FILLER_0_21_57
*776 FILLER_0_21_69
*777 FILLER_0_21_81
*778 FILLER_0_21_93
*779 FILLER_0_22_109
*780 FILLER_0_22_121
*781 FILLER_0_22_133
*782 FILLER_0_22_139
*783 FILLER_0_22_141
*784 FILLER_0_22_15
*785 FILLER_0_22_153
*786 FILLER_0_22_165
*787 FILLER_0_22_177
*788 FILLER_0_22_189
*789 FILLER_0_22_195
*790 FILLER_0_22_197
*791 FILLER_0_22_209
*792 FILLER_0_22_221
*793 FILLER_0_22_233
*794 FILLER_0_22_245
*795 FILLER_0_22_251
*796 FILLER_0_22_253
*797 FILLER_0_22_265
*798 FILLER_0_22_27
*799 FILLER_0_22_277
*800 FILLER_0_22_289
*801 FILLER_0_22_29
*802 FILLER_0_22_3
*803 FILLER_0_22_301
*804 FILLER_0_22_307
*805 FILLER_0_22_309
*806 FILLER_0_22_321
*807 FILLER_0_22_333
*808 FILLER_0_22_345
*809 FILLER_0_22_41
*810 FILLER_0_22_53
*811 FILLER_0_22_65
*812 FILLER_0_22_77
*813 FILLER_0_22_83
*814 FILLER_0_22_85
*815 FILLER_0_22_97
*816 FILLER_0_23_105
*817 FILLER_0_23_111
*818 FILLER_0_23_113
*819 FILLER_0_23_125
*820 FILLER_0_23_137
*821 FILLER_0_23_149
*822 FILLER_0_23_15
*823 FILLER_0_23_161
*824 FILLER_0_23_167
*825 FILLER_0_23_169
*826 FILLER_0_23_181
*827 FILLER_0_23_193
*828 FILLER_0_23_205
*829 FILLER_0_23_217
*830 FILLER_0_23_223
*831 FILLER_0_23_225
*832 FILLER_0_23_237
*833 FILLER_0_23_249
*834 FILLER_0_23_261
*835 FILLER_0_23_27
*836 FILLER_0_23_273
*837 FILLER_0_23_279
*838 FILLER_0_23_281
*839 FILLER_0_23_293
*840 FILLER_0_23_3
*841 FILLER_0_23_305
*842 FILLER_0_23_317
*843 FILLER_0_23_329
*844 FILLER_0_23_335
*845 FILLER_0_23_337
*846 FILLER_0_23_349
*847 FILLER_0_23_39
*848 FILLER_0_23_51
*849 FILLER_0_23_55
*850 FILLER_0_23_57
*851 FILLER_0_23_69
*852 FILLER_0_23_81
*853 FILLER_0_23_93
*854 FILLER_0_24_109
*855 FILLER_0_24_121
*856 FILLER_0_24_133
*857 FILLER_0_24_139
*858 FILLER_0_24_141
*859 FILLER_0_24_15
*860 FILLER_0_24_153
*861 FILLER_0_24_165
*862 FILLER_0_24_177
*863 FILLER_0_24_189
*864 FILLER_0_24_195
*865 FILLER_0_24_197
*866 FILLER_0_24_209
*867 FILLER_0_24_221
*868 FILLER_0_24_233
*869 FILLER_0_24_245
*870 FILLER_0_24_251
*871 FILLER_0_24_253
*872 FILLER_0_24_265
*873 FILLER_0_24_27
*874 FILLER_0_24_277
*875 FILLER_0_24_289
*876 FILLER_0_24_29
*877 FILLER_0_24_3
*878 FILLER_0_24_301
*879 FILLER_0_24_307
*880 FILLER_0_24_309
*881 FILLER_0_24_321
*882 FILLER_0_24_333
*883 FILLER_0_24_345
*884 FILLER_0_24_41
*885 FILLER_0_24_53
*886 FILLER_0_24_65
*887 FILLER_0_24_77
*888 FILLER_0_24_83
*889 FILLER_0_24_85
*890 FILLER_0_24_97
*891 FILLER_0_25_105
*892 FILLER_0_25_111
*893 FILLER_0_25_113
*894 FILLER_0_25_125
*895 FILLER_0_25_137
*896 FILLER_0_25_149
*897 FILLER_0_25_15
*898 FILLER_0_25_161
*899 FILLER_0_25_167
*900 FILLER_0_25_169
*901 FILLER_0_25_181
*902 FILLER_0_25_193
*903 FILLER_0_25_205
*904 FILLER_0_25_217
*905 FILLER_0_25_223
*906 FILLER_0_25_225
*907 FILLER_0_25_237
*908 FILLER_0_25_249
*909 FILLER_0_25_261
*910 FILLER_0_25_27
*911 FILLER_0_25_273
*912 FILLER_0_25_279
*913 FILLER_0_25_281
*914 FILLER_0_25_293
*915 FILLER_0_25_3
*916 FILLER_0_25_305
*917 FILLER_0_25_317
*918 FILLER_0_25_329
*919 FILLER_0_25_335
*920 FILLER_0_25_337
*921 FILLER_0_25_349
*922 FILLER_0_25_39
*923 FILLER_0_25_51
*924 FILLER_0_25_55
*925 FILLER_0_25_57
*926 FILLER_0_25_69
*927 FILLER_0_25_81
*928 FILLER_0_25_93
*929 FILLER_0_26_109
*930 FILLER_0_26_141
*931 FILLER_0_26_15
*932 FILLER_0_26_153
*933 FILLER_0_26_161
*934 FILLER_0_26_183
*935 FILLER_0_26_195
*936 FILLER_0_26_197
*937 FILLER_0_26_220
*938 FILLER_0_26_240
*939 FILLER_0_26_253
*940 FILLER_0_26_265
*941 FILLER_0_26_27
*942 FILLER_0_26_277
*943 FILLER_0_26_289
*944 FILLER_0_26_29
*945 FILLER_0_26_3
*946 FILLER_0_26_301
*947 FILLER_0_26_307
*948 FILLER_0_26_309
*949 FILLER_0_26_321
*950 FILLER_0_26_333
*951 FILLER_0_26_345
*952 FILLER_0_26_41
*953 FILLER_0_26_53
*954 FILLER_0_26_65
*955 FILLER_0_26_77
*956 FILLER_0_26_83
*957 FILLER_0_26_85
*958 FILLER_0_26_97
*959 FILLER_0_27_105
*960 FILLER_0_27_111
*961 FILLER_0_27_113
*962 FILLER_0_27_121
*963 FILLER_0_27_132
*964 FILLER_0_27_142
*965 FILLER_0_27_15
*966 FILLER_0_27_169
*967 FILLER_0_27_202
*968 FILLER_0_27_218
*969 FILLER_0_27_241
*970 FILLER_0_27_253
*971 FILLER_0_27_265
*972 FILLER_0_27_27
*973 FILLER_0_27_277
*974 FILLER_0_27_281
*975 FILLER_0_27_293
*976 FILLER_0_27_3
*977 FILLER_0_27_305
*978 FILLER_0_27_317
*979 FILLER_0_27_329
*980 FILLER_0_27_335
*981 FILLER_0_27_337
*982 FILLER_0_27_349
*983 FILLER_0_27_39
*984 FILLER_0_27_51
*985 FILLER_0_27_55
*986 FILLER_0_27_57
*987 FILLER_0_27_69
*988 FILLER_0_27_81
*989 FILLER_0_27_93
*990 FILLER_0_28_109
*991 FILLER_0_28_121
*992 FILLER_0_28_136
*993 FILLER_0_28_141
*994 FILLER_0_28_15
*995 FILLER_0_28_162
*996 FILLER_0_28_174
*997 FILLER_0_28_193
*998 FILLER_0_28_197
*999 FILLER_0_28_201
*1000 FILLER_0_28_206
*1001 FILLER_0_28_210
*1002 FILLER_0_28_216
*1003 FILLER_0_28_228
*1004 FILLER_0_28_238
*1005 FILLER_0_28_242
*1006 FILLER_0_28_250
*1007 FILLER_0_28_253
*1008 FILLER_0_28_258
*1009 FILLER_0_28_27
*1010 FILLER_0_28_275
*1011 FILLER_0_28_287
*1012 FILLER_0_28_29
*1013 FILLER_0_28_3
*1014 FILLER_0_28_304
*1015 FILLER_0_28_309
*1016 FILLER_0_28_321
*1017 FILLER_0_28_333
*1018 FILLER_0_28_345
*1019 FILLER_0_28_41
*1020 FILLER_0_28_53
*1021 FILLER_0_28_65
*1022 FILLER_0_28_77
*1023 FILLER_0_28_83
*1024 FILLER_0_28_85
*1025 FILLER_0_28_97
*1026 FILLER_0_29_105
*1027 FILLER_0_29_111
*1028 FILLER_0_29_113
*1029 FILLER_0_29_122
*1030 FILLER_0_29_134
*1031 FILLER_0_29_15
*1032 FILLER_0_29_169
*1033 FILLER_0_29_192
*1034 FILLER_0_29_196
*1035 FILLER_0_29_207
*1036 FILLER_0_29_220
*1037 FILLER_0_29_225
*1038 FILLER_0_29_231
*1039 FILLER_0_29_249
*1040 FILLER_0_29_27
*1041 FILLER_0_29_3
*1042 FILLER_0_29_313
*1043 FILLER_0_29_325
*1044 FILLER_0_29_333
*1045 FILLER_0_29_337
*1046 FILLER_0_29_349
*1047 FILLER_0_29_39
*1048 FILLER_0_29_51
*1049 FILLER_0_29_55
*1050 FILLER_0_29_57
*1051 FILLER_0_29_69
*1052 FILLER_0_29_81
*1053 FILLER_0_29_93
*1054 FILLER_0_2_109
*1055 FILLER_0_2_121
*1056 FILLER_0_2_133
*1057 FILLER_0_2_139
*1058 FILLER_0_2_141
*1059 FILLER_0_2_15
*1060 FILLER_0_2_153
*1061 FILLER_0_2_165
*1062 FILLER_0_2_177
*1063 FILLER_0_2_189
*1064 FILLER_0_2_195
*1065 FILLER_0_2_197
*1066 FILLER_0_2_209
*1067 FILLER_0_2_221
*1068 FILLER_0_2_233
*1069 FILLER_0_2_245
*1070 FILLER_0_2_251
*1071 FILLER_0_2_253
*1072 FILLER_0_2_265
*1073 FILLER_0_2_27
*1074 FILLER_0_2_277
*1075 FILLER_0_2_289
*1076 FILLER_0_2_29
*1077 FILLER_0_2_3
*1078 FILLER_0_2_301
*1079 FILLER_0_2_307
*1080 FILLER_0_2_309
*1081 FILLER_0_2_321
*1082 FILLER_0_2_333
*1083 FILLER_0_2_345
*1084 FILLER_0_2_41
*1085 FILLER_0_2_53
*1086 FILLER_0_2_65
*1087 FILLER_0_2_77
*1088 FILLER_0_2_83
*1089 FILLER_0_2_85
*1090 FILLER_0_2_97
*1091 FILLER_0_30_128
*1092 FILLER_0_30_148
*1093 FILLER_0_30_15
*1094 FILLER_0_30_155
*1095 FILLER_0_30_162
*1096 FILLER_0_30_172
*1097 FILLER_0_30_177
*1098 FILLER_0_30_187
*1099 FILLER_0_30_197
*1100 FILLER_0_30_218
*1101 FILLER_0_30_226
*1102 FILLER_0_30_236
*1103 FILLER_0_30_242
*1104 FILLER_0_30_253
*1105 FILLER_0_30_27
*1106 FILLER_0_30_282
*1107 FILLER_0_30_29
*1108 FILLER_0_30_293
*1109 FILLER_0_30_3
*1110 FILLER_0_30_303
*1111 FILLER_0_30_307
*1112 FILLER_0_30_317
*1113 FILLER_0_30_329
*1114 FILLER_0_30_341
*1115 FILLER_0_30_349
*1116 FILLER_0_30_41
*1117 FILLER_0_30_53
*1118 FILLER_0_30_65
*1119 FILLER_0_30_77
*1120 FILLER_0_30_83
*1121 FILLER_0_30_85
*1122 FILLER_0_30_97
*1123 FILLER_0_31_105
*1124 FILLER_0_31_111
*1125 FILLER_0_31_125
*1126 FILLER_0_31_133
*1127 FILLER_0_31_137
*1128 FILLER_0_31_15
*1129 FILLER_0_31_153
*1130 FILLER_0_31_167
*1131 FILLER_0_31_169
*1132 FILLER_0_31_177
*1133 FILLER_0_31_189
*1134 FILLER_0_31_193
*1135 FILLER_0_31_252
*1136 FILLER_0_31_256
*1137 FILLER_0_31_27
*1138 FILLER_0_31_274
*1139 FILLER_0_31_3
*1140 FILLER_0_31_302
*1141 FILLER_0_31_319
*1142 FILLER_0_31_331
*1143 FILLER_0_31_335
*1144 FILLER_0_31_337
*1145 FILLER_0_31_349
*1146 FILLER_0_31_39
*1147 FILLER_0_31_51
*1148 FILLER_0_31_55
*1149 FILLER_0_31_57
*1150 FILLER_0_31_69
*1151 FILLER_0_31_81
*1152 FILLER_0_31_93
*1153 FILLER_0_32_109
*1154 FILLER_0_32_121
*1155 FILLER_0_32_131
*1156 FILLER_0_32_139
*1157 FILLER_0_32_141
*1158 FILLER_0_32_149
*1159 FILLER_0_32_15
*1160 FILLER_0_32_161
*1161 FILLER_0_32_185
*1162 FILLER_0_32_193
*1163 FILLER_0_32_206
*1164 FILLER_0_32_230
*1165 FILLER_0_32_251
*1166 FILLER_0_32_253
*1167 FILLER_0_32_265
*1168 FILLER_0_32_27
*1169 FILLER_0_32_280
*1170 FILLER_0_32_29
*1171 FILLER_0_32_3
*1172 FILLER_0_32_304
*1173 FILLER_0_32_309
*1174 FILLER_0_32_321
*1175 FILLER_0_32_333
*1176 FILLER_0_32_345
*1177 FILLER_0_32_41
*1178 FILLER_0_32_53
*1179 FILLER_0_32_65
*1180 FILLER_0_32_77
*1181 FILLER_0_32_83
*1182 FILLER_0_32_85
*1183 FILLER_0_32_97
*1184 FILLER_0_33_105
*1185 FILLER_0_33_111
*1186 FILLER_0_33_113
*1187 FILLER_0_33_124
*1188 FILLER_0_33_139
*1189 FILLER_0_33_147
*1190 FILLER_0_33_15
*1191 FILLER_0_33_169
*1192 FILLER_0_33_187
*1193 FILLER_0_33_206
*1194 FILLER_0_33_218
*1195 FILLER_0_33_225
*1196 FILLER_0_33_235
*1197 FILLER_0_33_239
*1198 FILLER_0_33_251
*1199 FILLER_0_33_263
*1200 FILLER_0_33_27
*1201 FILLER_0_33_271
*1202 FILLER_0_33_281
*1203 FILLER_0_33_3
*1204 FILLER_0_33_300
*1205 FILLER_0_33_321
*1206 FILLER_0_33_333
*1207 FILLER_0_33_337
*1208 FILLER_0_33_349
*1209 FILLER_0_33_39
*1210 FILLER_0_33_51
*1211 FILLER_0_33_55
*1212 FILLER_0_33_57
*1213 FILLER_0_33_69
*1214 FILLER_0_33_81
*1215 FILLER_0_33_93
*1216 FILLER_0_34_105
*1217 FILLER_0_34_133
*1218 FILLER_0_34_139
*1219 FILLER_0_34_141
*1220 FILLER_0_34_15
*1221 FILLER_0_34_153
*1222 FILLER_0_34_160
*1223 FILLER_0_34_172
*1224 FILLER_0_34_176
*1225 FILLER_0_34_190
*1226 FILLER_0_34_197
*1227 FILLER_0_34_209
*1228 FILLER_0_34_244
*1229 FILLER_0_34_269
*1230 FILLER_0_34_27
*1231 FILLER_0_34_29
*1232 FILLER_0_34_299
*1233 FILLER_0_34_3
*1234 FILLER_0_34_307
*1235 FILLER_0_34_309
*1236 FILLER_0_34_321
*1237 FILLER_0_34_333
*1238 FILLER_0_34_345
*1239 FILLER_0_34_41
*1240 FILLER_0_34_53
*1241 FILLER_0_34_65
*1242 FILLER_0_34_77
*1243 FILLER_0_34_83
*1244 FILLER_0_34_85
*1245 FILLER_0_34_97
*1246 FILLER_0_35_105
*1247 FILLER_0_35_111
*1248 FILLER_0_35_113
*1249 FILLER_0_35_121
*1250 FILLER_0_35_146
*1251 FILLER_0_35_15
*1252 FILLER_0_35_160
*1253 FILLER_0_35_169
*1254 FILLER_0_35_188
*1255 FILLER_0_35_213
*1256 FILLER_0_35_220
*1257 FILLER_0_35_225
*1258 FILLER_0_35_237
*1259 FILLER_0_35_260
*1260 FILLER_0_35_27
*1261 FILLER_0_35_272
*1262 FILLER_0_35_285
*1263 FILLER_0_35_296
*1264 FILLER_0_35_3
*1265 FILLER_0_35_314
*1266 FILLER_0_35_326
*1267 FILLER_0_35_334
*1268 FILLER_0_35_337
*1269 FILLER_0_35_349
*1270 FILLER_0_35_39
*1271 FILLER_0_35_51
*1272 FILLER_0_35_55
*1273 FILLER_0_35_57
*1274 FILLER_0_35_69
*1275 FILLER_0_35_81
*1276 FILLER_0_35_93
*1277 FILLER_0_36_105
*1278 FILLER_0_36_124
*1279 FILLER_0_36_138
*1280 FILLER_0_36_15
*1281 FILLER_0_36_155
*1282 FILLER_0_36_168
*1283 FILLER_0_36_188
*1284 FILLER_0_36_197
*1285 FILLER_0_36_220
*1286 FILLER_0_36_235
*1287 FILLER_0_36_243
*1288 FILLER_0_36_251
*1289 FILLER_0_36_253
*1290 FILLER_0_36_27
*1291 FILLER_0_36_275
*1292 FILLER_0_36_29
*1293 FILLER_0_36_3
*1294 FILLER_0_36_306
*1295 FILLER_0_36_317
*1296 FILLER_0_36_329
*1297 FILLER_0_36_341
*1298 FILLER_0_36_349
*1299 FILLER_0_36_41
*1300 FILLER_0_36_53
*1301 FILLER_0_36_65
*1302 FILLER_0_36_77
*1303 FILLER_0_36_83
*1304 FILLER_0_36_85
*1305 FILLER_0_36_97
*1306 FILLER_0_37_105
*1307 FILLER_0_37_111
*1308 FILLER_0_37_113
*1309 FILLER_0_37_130
*1310 FILLER_0_37_146
*1311 FILLER_0_37_15
*1312 FILLER_0_37_156
*1313 FILLER_0_37_167
*1314 FILLER_0_37_169
*1315 FILLER_0_37_175
*1316 FILLER_0_37_194
*1317 FILLER_0_37_213
*1318 FILLER_0_37_225
*1319 FILLER_0_37_236
*1320 FILLER_0_37_243
*1321 FILLER_0_37_259
*1322 FILLER_0_37_27
*1323 FILLER_0_37_279
*1324 FILLER_0_37_281
*1325 FILLER_0_37_3
*1326 FILLER_0_37_301
*1327 FILLER_0_37_325
*1328 FILLER_0_37_333
*1329 FILLER_0_37_337
*1330 FILLER_0_37_349
*1331 FILLER_0_37_39
*1332 FILLER_0_37_51
*1333 FILLER_0_37_55
*1334 FILLER_0_37_57
*1335 FILLER_0_37_69
*1336 FILLER_0_37_81
*1337 FILLER_0_37_93
*1338 FILLER_0_38_104
*1339 FILLER_0_38_110
*1340 FILLER_0_38_116
*1341 FILLER_0_38_122
*1342 FILLER_0_38_128
*1343 FILLER_0_38_149
*1344 FILLER_0_38_15
*1345 FILLER_0_38_163
*1346 FILLER_0_38_167
*1347 FILLER_0_38_169
*1348 FILLER_0_38_191
*1349 FILLER_0_38_195
*1350 FILLER_0_38_197
*1351 FILLER_0_38_206
*1352 FILLER_0_38_212
*1353 FILLER_0_38_236
*1354 FILLER_0_38_250
*1355 FILLER_0_38_27
*1356 FILLER_0_38_279
*1357 FILLER_0_38_29
*1358 FILLER_0_38_291
*1359 FILLER_0_38_3
*1360 FILLER_0_38_313
*1361 FILLER_0_38_323
*1362 FILLER_0_38_335
*1363 FILLER_0_38_337
*1364 FILLER_0_38_349
*1365 FILLER_0_38_41
*1366 FILLER_0_38_53
*1367 FILLER_0_38_57
*1368 FILLER_0_38_68
*1369 FILLER_0_38_74
*1370 FILLER_0_38_80
*1371 FILLER_0_38_88
*1372 FILLER_0_38_92
*1373 FILLER_0_38_98
*1374 FILLER_0_3_105
*1375 FILLER_0_3_111
*1376 FILLER_0_3_113
*1377 FILLER_0_3_125
*1378 FILLER_0_3_137
*1379 FILLER_0_3_149
*1380 FILLER_0_3_15
*1381 FILLER_0_3_161
*1382 FILLER_0_3_167
*1383 FILLER_0_3_169
*1384 FILLER_0_3_181
*1385 FILLER_0_3_193
*1386 FILLER_0_3_205
*1387 FILLER_0_3_217
*1388 FILLER_0_3_223
*1389 FILLER_0_3_225
*1390 FILLER_0_3_237
*1391 FILLER_0_3_249
*1392 FILLER_0_3_261
*1393 FILLER_0_3_27
*1394 FILLER_0_3_273
*1395 FILLER_0_3_279
*1396 FILLER_0_3_281
*1397 FILLER_0_3_293
*1398 FILLER_0_3_3
*1399 FILLER_0_3_305
*1400 FILLER_0_3_317
*1401 FILLER_0_3_329
*1402 FILLER_0_3_335
*1403 FILLER_0_3_337
*1404 FILLER_0_3_349
*1405 FILLER_0_3_39
*1406 FILLER_0_3_51
*1407 FILLER_0_3_55
*1408 FILLER_0_3_57
*1409 FILLER_0_3_69
*1410 FILLER_0_3_81
*1411 FILLER_0_3_93
*1412 FILLER_0_4_109
*1413 FILLER_0_4_121
*1414 FILLER_0_4_133
*1415 FILLER_0_4_139
*1416 FILLER_0_4_141
*1417 FILLER_0_4_15
*1418 FILLER_0_4_153
*1419 FILLER_0_4_165
*1420 FILLER_0_4_177
*1421 FILLER_0_4_189
*1422 FILLER_0_4_195
*1423 FILLER_0_4_197
*1424 FILLER_0_4_209
*1425 FILLER_0_4_221
*1426 FILLER_0_4_233
*1427 FILLER_0_4_245
*1428 FILLER_0_4_251
*1429 FILLER_0_4_253
*1430 FILLER_0_4_265
*1431 FILLER_0_4_27
*1432 FILLER_0_4_277
*1433 FILLER_0_4_289
*1434 FILLER_0_4_29
*1435 FILLER_0_4_3
*1436 FILLER_0_4_301
*1437 FILLER_0_4_307
*1438 FILLER_0_4_309
*1439 FILLER_0_4_321
*1440 FILLER_0_4_333
*1441 FILLER_0_4_345
*1442 FILLER_0_4_41
*1443 FILLER_0_4_53
*1444 FILLER_0_4_65
*1445 FILLER_0_4_77
*1446 FILLER_0_4_83
*1447 FILLER_0_4_85
*1448 FILLER_0_4_97
*1449 FILLER_0_5_105
*1450 FILLER_0_5_111
*1451 FILLER_0_5_113
*1452 FILLER_0_5_125
*1453 FILLER_0_5_137
*1454 FILLER_0_5_149
*1455 FILLER_0_5_15
*1456 FILLER_0_5_161
*1457 FILLER_0_5_167
*1458 FILLER_0_5_169
*1459 FILLER_0_5_181
*1460 FILLER_0_5_193
*1461 FILLER_0_5_205
*1462 FILLER_0_5_217
*1463 FILLER_0_5_223
*1464 FILLER_0_5_225
*1465 FILLER_0_5_237
*1466 FILLER_0_5_249
*1467 FILLER_0_5_261
*1468 FILLER_0_5_27
*1469 FILLER_0_5_273
*1470 FILLER_0_5_279
*1471 FILLER_0_5_281
*1472 FILLER_0_5_293
*1473 FILLER_0_5_3
*1474 FILLER_0_5_305
*1475 FILLER_0_5_317
*1476 FILLER_0_5_329
*1477 FILLER_0_5_335
*1478 FILLER_0_5_337
*1479 FILLER_0_5_349
*1480 FILLER_0_5_39
*1481 FILLER_0_5_51
*1482 FILLER_0_5_55
*1483 FILLER_0_5_57
*1484 FILLER_0_5_69
*1485 FILLER_0_5_81
*1486 FILLER_0_5_93
*1487 FILLER_0_6_109
*1488 FILLER_0_6_121
*1489 FILLER_0_6_133
*1490 FILLER_0_6_139
*1491 FILLER_0_6_141
*1492 FILLER_0_6_15
*1493 FILLER_0_6_153
*1494 FILLER_0_6_165
*1495 FILLER_0_6_177
*1496 FILLER_0_6_189
*1497 FILLER_0_6_195
*1498 FILLER_0_6_197
*1499 FILLER_0_6_209
*1500 FILLER_0_6_221
*1501 FILLER_0_6_233
*1502 FILLER_0_6_245
*1503 FILLER_0_6_251
*1504 FILLER_0_6_253
*1505 FILLER_0_6_265
*1506 FILLER_0_6_27
*1507 FILLER_0_6_277
*1508 FILLER_0_6_289
*1509 FILLER_0_6_29
*1510 FILLER_0_6_3
*1511 FILLER_0_6_301
*1512 FILLER_0_6_307
*1513 FILLER_0_6_309
*1514 FILLER_0_6_321
*1515 FILLER_0_6_333
*1516 FILLER_0_6_345
*1517 FILLER_0_6_41
*1518 FILLER_0_6_53
*1519 FILLER_0_6_65
*1520 FILLER_0_6_77
*1521 FILLER_0_6_83
*1522 FILLER_0_6_85
*1523 FILLER_0_6_97
*1524 FILLER_0_7_105
*1525 FILLER_0_7_111
*1526 FILLER_0_7_113
*1527 FILLER_0_7_125