*SPEF "ieee 1481-1999"
*DESIGN "tt_um_hodgkin_huxley"
*DATE "11:11:11 Fri 11 11, 1111"
*VENDOR "OpenRCX"
*PROGRAM "Parallel Extraction"
*VERSION "1.0"
*DESIGN_FLOW "NAME_SCOPE LOCAL" "PIN_CAP NONE"
*DIVIDER /
*DELIMITER :
*BUS_DELIMITER []
*T_UNIT 1 NS
*C_UNIT 1 PF
*R_UNIT 1 OHM
*L_UNIT 1 HENRY

*NAME_MAP
*3 clk
*4 ena
*5 rst_n
*6 ui_in[0]
*7 ui_in[1]
*8 ui_in[2]
*9 ui_in[3]
*10 ui_in[4]
*11 ui_in[5]
*12 ui_in[6]
*13 ui_in[7]
*14 uio_in[0]
*15 uio_in[1]
*16 uio_in[2]
*17 uio_in[3]
*18 uio_in[4]
*19 uio_in[5]
*20 uio_in[6]
*21 uio_in[7]
*22 net22
*23 net23
*24 net24
*25 net25
*26 net26
*27 net27
*28 net28
*29 net29
*30 uio_out[0]
*31 net14
*32 net15
*33 net16
*34 net17
*35 net18
*36 net19
*37 net20
*38 uo_out[0]
*39 uo_out[1]
*40 uo_out[2]
*41 uo_out[3]
*42 uo_out[4]
*43 uo_out[5]
*44 uo_out[6]
*45 uo_out[7]
*46 _0000_
*47 _0001_
*48 _0002_
*49 _0003_
*50 _0004_
*51 _0005_
*52 _0006_
*53 _0008_
*54 _0009_
*55 _0010_
*56 _0011_
*57 _0012_
*58 _0013_
*59 _0014_
*60 _0015_
*61 _0016_
*62 _0017_
*63 _0018_
*64 _0019_
*65 _0020_
*66 _0021_
*67 _0022_
*68 _0023_
*69 _0024_
*70 _0025_
*71 _0026_
*72 _0027_
*73 _0028_
*74 _0029_
*75 _0030_
*76 _0031_
*77 _0032_
*78 _0033_
*79 _0034_
*80 _0035_
*81 _0036_
*82 _0037_
*83 _0038_
*84 _0039_
*85 _0040_
*86 _0041_
*87 _0042_
*88 _0043_
*89 _0044_
*90 _0045_
*91 _0046_
*92 _0047_
*93 _0048_
*94 _0049_
*95 _0050_
*96 _0051_
*97 _0052_
*98 _0053_
*99 _0054_
*100 _0055_
*101 _0056_
*102 _0057_
*103 _0058_
*104 _0059_
*105 _0060_
*106 _0061_
*107 _0062_
*108 _0063_
*109 _0064_
*110 _0065_
*111 _0066_
*112 _0067_
*113 _0068_
*114 _0069_
*115 _0070_
*116 _0071_
*117 _0072_
*118 _0073_
*119 _0074_
*120 _0075_
*121 _0076_
*122 _0077_
*123 _0078_
*124 _0079_
*125 _0080_
*126 _0081_
*127 _0082_
*128 _0083_
*129 _0084_
*130 _0085_
*131 _0086_
*132 _0087_
*133 _0088_
*134 _0089_
*135 _0090_
*136 _0091_
*137 _0092_
*138 _0093_
*139 _0094_
*140 _0095_
*141 _0096_
*142 _0097_
*143 _0098_
*144 _0099_
*145 _0100_
*146 _0101_
*147 _0102_
*148 _0103_
*149 _0104_
*150 _0105_
*151 _0106_
*152 _0107_
*153 _0108_
*154 _0109_
*155 _0110_
*156 _0111_
*157 _0112_
*158 _0113_
*159 _0114_
*160 _0115_
*161 _0116_
*162 _0117_
*163 _0118_
*164 _0119_
*165 _0120_
*166 _0121_
*167 _0122_
*168 _0123_
*169 _0124_
*170 _0125_
*171 _0126_
*172 _0127_
*173 _0128_
*174 _0129_
*175 _0130_
*176 _0131_
*177 _0132_
*178 _0133_
*179 _0134_
*180 _0135_
*181 _0136_
*182 _0137_
*183 _0138_
*184 _0139_
*185 _0140_
*186 _0141_
*187 _0142_
*188 _0143_
*189 _0144_
*190 _0145_
*191 _0146_
*192 _0147_
*193 _0148_
*194 _0149_
*195 _0150_
*196 _0151_
*197 _0152_
*198 _0153_
*199 _0154_
*200 _0155_
*201 _0156_
*202 _0157_
*203 _0158_
*204 _0159_
*205 _0160_
*206 _0161_
*207 _0162_
*208 _0163_
*209 _0164_
*210 _0165_
*211 _0166_
*212 _0167_
*213 _0168_
*214 _0169_
*215 _0170_
*216 _0171_
*217 _0172_
*218 _0173_
*219 _0174_
*220 _0175_
*221 _0176_
*222 _0177_
*223 _0178_
*224 _0179_
*225 _0180_
*226 _0181_
*227 _0182_
*228 _0183_
*229 _0184_
*230 _0185_
*231 _0186_
*232 _0187_
*233 _0188_
*234 _0189_
*235 _0190_
*236 _0191_
*237 _0192_
*238 _0193_
*239 _0194_
*240 _0195_
*241 _0196_
*242 _0197_
*243 _0198_
*244 _0199_
*245 _0200_
*246 _0201_
*247 _0202_
*248 _0203_
*249 _0204_
*250 _0205_
*251 _0206_
*252 _0207_
*253 _0208_
*254 _0209_
*255 _0210_
*256 _0211_
*257 _0212_
*258 _0213_
*259 _0214_
*260 _0215_
*261 _0216_
*262 _0217_
*263 _0218_
*264 _0219_
*265 _0220_
*266 _0221_
*267 _0222_
*268 _0223_
*269 _0224_
*270 _0225_
*271 _0226_
*272 _0227_
*273 _0228_
*274 _0229_
*275 _0230_
*276 _0231_
*277 _0232_
*278 _0233_
*279 _0234_
*280 _0235_
*281 _0236_
*282 _0237_
*283 _0238_
*284 _0239_
*285 _0240_
*286 _0241_
*287 _0242_
*288 _0243_
*289 _0244_
*290 _0245_
*291 _0246_
*292 _0247_
*293 _0248_
*294 _0249_
*295 _0250_
*296 _0251_
*297 _0252_
*298 _0253_
*299 _0254_
*300 _0255_
*301 _0256_
*302 _0257_
*303 _0258_
*304 _0259_
*305 _0260_
*306 _0261_
*307 _0262_
*308 _0263_
*309 _0264_
*310 _0265_
*311 _0266_
*312 _0267_
*313 _0268_
*314 _0269_
*315 _0270_
*316 _0271_
*317 _0272_
*318 _0273_
*319 _0274_
*320 _0275_
*321 _0276_
*322 _0277_
*323 _0278_
*324 _0279_
*325 _0280_
*326 _0281_
*327 _0282_
*328 _0283_
*329 _0284_
*330 _0285_
*331 _0286_
*332 _0287_
*333 _0288_
*334 _0289_
*335 _0290_
*336 _0291_
*337 _0292_
*338 _0293_
*339 _0294_
*340 _0295_
*341 _0296_
*342 _0297_
*343 _0298_
*344 _0299_
*345 _0300_
*346 _0301_
*347 _0302_
*348 _0303_
*349 _0304_
*350 _0305_
*351 _0306_
*352 _0307_
*353 _0308_
*354 _0309_
*355 _0310_
*356 _0311_
*357 _0312_
*358 _0313_
*359 _0314_
*360 _0315_
*361 _0316_
*362 _0317_
*363 _0318_
*364 _0319_
*365 _0320_
*366 _0321_
*367 _0322_
*368 _0323_
*369 _0324_
*370 _0325_
*371 _0326_
*372 _0327_
*373 _0328_
*374 _0329_
*375 _0330_
*376 _0331_
*377 _0332_
*378 _0333_
*379 _0334_
*380 _0335_
*381 _0336_
*382 _0337_
*383 _0338_
*384 _0339_
*385 _0340_
*386 _0341_
*387 _0342_
*388 _0343_
*389 _0344_
*390 _0345_
*391 _0346_
*392 _0347_
*393 _0348_
*394 _0349_
*395 _0350_
*396 _0351_
*397 _0352_
*398 _0353_
*399 _0354_
*400 _0355_
*401 _0356_
*402 _0357_
*403 _0358_
*404 _0359_
*405 _0360_
*406 _0361_
*407 _0362_
*408 _0363_
*409 _0364_
*410 _0365_
*411 _0366_
*412 _0367_
*413 _0368_
*414 _0369_
*415 _0370_
*416 _0371_
*417 _0372_
*418 _0373_
*419 _0374_
*420 _0375_
*421 _0376_
*422 _0377_
*423 _0378_
*424 _0379_
*425 _0380_
*426 _0381_
*427 _0382_
*428 _0383_
*429 _0384_
*430 _0385_
*431 _0386_
*432 _0387_
*433 _0388_
*434 _0389_
*435 _0390_
*436 _0391_
*437 _0392_
*438 _0393_
*439 _0394_
*440 _0395_
*441 _0396_
*442 _0397_
*443 _0398_
*444 _0399_
*445 _0400_
*446 _0401_
*447 _0402_
*448 _0403_
*449 _0404_
*450 _0405_
*451 _0406_
*452 _0407_
*453 _0408_
*454 _0409_
*455 _0410_
*456 _0411_
*457 _0412_
*458 _0413_
*459 _0414_
*460 _0415_
*461 _0416_
*462 _0417_
*463 _0418_
*464 _0419_
*465 _0420_
*466 _0421_
*467 _0422_
*468 _0423_
*469 _0424_
*470 _0425_
*471 _0426_
*472 _0427_
*473 _0428_
*474 _0429_
*475 _0430_
*476 _0431_
*477 _0432_
*478 _0433_
*479 _0434_
*480 _0435_
*481 _0436_
*482 _0437_
*483 _0438_
*484 _0439_
*485 _0440_
*486 _0441_
*487 _0442_
*488 _0443_
*489 _0444_
*490 _0445_
*491 _0446_
*492 _0447_
*493 _0448_
*494 _0449_
*495 _0450_
*496 _0451_
*497 _0452_
*498 _0453_
*499 _0454_
*500 _0455_
*501 _0456_
*502 _0457_
*503 _0458_
*504 _0459_
*505 _0460_
*506 _0461_
*507 _0462_
*508 _0463_
*509 _0464_
*510 _0465_
*511 _0466_
*512 _0467_
*513 _0468_
*514 _0469_
*515 _0470_
*516 _0471_
*517 _0472_
*518 _0473_
*519 _0474_
*520 _0475_
*521 _0476_
*522 _0477_
*523 _0478_
*524 _0479_
*525 _0480_
*526 _0481_
*527 _0482_
*528 _0483_
*529 _0484_
*530 _0485_
*531 _0486_
*532 _0487_
*533 _0488_
*534 _0489_
*535 _0490_
*536 _0491_
*537 _0492_
*538 _0493_
*539 _0494_
*540 _0495_
*541 _0496_
*542 _0497_
*543 _0498_
*544 _0499_
*545 _0500_
*546 _0501_
*547 _0502_
*548 _0503_
*549 _0504_
*550 _0505_
*551 _0506_
*552 _0507_
*553 _0508_
*554 _0509_
*555 _0510_
*556 _0511_
*557 _0512_
*558 _0513_
*559 _0514_
*560 _0515_
*561 _0516_
*562 _0517_
*563 _0518_
*564 _0519_
*565 _0520_
*566 _0521_
*567 _0522_
*568 _0523_
*569 _0524_
*570 _0525_
*571 _0526_
*572 _0527_
*573 _0528_
*574 _0529_
*575 _0530_
*576 _0531_
*577 _0532_
*578 _0533_
*579 _0534_
*580 _0535_
*581 _0536_
*582 _0537_
*583 _0538_
*584 _0539_
*585 _0540_
*586 _0541_
*587 _0542_
*588 _0543_
*589 _0544_
*590 _0545_
*591 _0546_
*592 _0547_
*593 _0548_
*594 _0549_
*595 _0550_
*596 _0551_
*597 _0552_
*598 _0553_
*599 _0554_
*600 _0555_
*601 _0556_
*602 _0557_
*603 _0558_
*604 _0559_
*605 _0560_
*606 _0561_
*607 _0562_
*608 _0563_
*609 _0564_
*610 _0565_
*611 _0566_
*612 _0567_
*613 _0568_
*614 _0569_
*615 _0570_
*616 _0571_
*617 _0572_
*618 _0573_
*619 _0574_
*620 _0575_
*621 _0576_
*622 _0577_
*623 _0578_
*624 _0579_
*625 _0580_
*626 _0581_
*627 _0582_
*628 _0583_
*629 _0584_
*630 _0585_
*631 _0586_
*632 _0587_
*633 _0588_
*634 _0589_
*635 _0590_
*636 _0591_
*637 _0592_
*638 _0593_
*639 _0594_
*640 _0595_
*641 _0596_
*642 _0597_
*643 _0598_
*644 _0599_
*645 _0600_
*646 _0601_
*647 _0602_
*648 _0603_
*649 _0604_
*650 _0605_
*651 _0606_
*652 _0607_
*653 _0608_
*654 _0609_
*655 _0610_
*656 _0611_
*657 _0612_
*658 _0613_
*659 _0614_
*660 _0615_
*661 _0616_
*662 _0617_
*663 _0618_
*664 _0619_
*665 _0620_
*666 _0621_
*667 _0622_
*668 _0623_
*669 _0624_
*670 _0625_
*671 _0626_
*672 _0627_
*673 _0628_
*674 _0629_
*675 _0630_
*676 _0631_
*677 _0632_
*678 _0633_
*679 _0634_
*680 _0635_
*681 _0636_
*682 _0637_
*683 _0638_
*684 _0639_
*685 _0640_
*686 _0641_
*687 _0642_
*688 _0643_
*689 _0644_
*690 _0645_
*691 _0646_
*692 _0647_
*693 _0648_
*694 _0649_
*695 _0650_
*696 _0651_
*697 _0652_
*698 _0653_
*699 _0654_
*700 _0655_
*701 _0656_
*702 _0657_
*703 _0658_
*704 _0659_
*705 _0660_
*706 _0661_
*707 _0662_
*708 _0663_
*709 _0664_
*710 _0665_
*711 _0666_
*712 _0667_
*713 _0668_
*714 _0669_
*715 _0670_
*716 _0671_
*717 _0672_
*718 _0673_
*719 _0674_
*720 _0675_
*721 _0676_
*722 _0677_
*723 _0678_
*724 _0679_
*725 _0680_
*726 _0681_
*727 _0682_
*728 _0683_
*729 _0684_
*730 _0685_
*731 _0686_
*732 _0687_
*733 _0688_
*734 _0689_
*735 _0690_
*736 _0691_
*737 _0692_
*738 _0693_
*739 _0694_
*740 _0695_
*741 _0696_
*742 _0697_
*743 _0698_
*744 _0699_
*745 _0700_
*746 _0701_
*747 _0702_
*748 _0703_
*749 _0704_
*750 _0705_
*751 _0706_
*752 _0707_
*753 _0708_
*754 _0709_
*755 _0710_
*756 _0711_
*757 _0712_
*758 _0713_
*759 _0714_
*760 _0715_
*761 _0716_
*762 _0717_
*763 _0718_
*764 _0719_
*765 _0720_
*766 _0721_
*767 _0722_
*768 _0723_
*769 _0724_
*770 _0725_
*771 _0726_
*772 _0727_
*773 _0728_
*774 _0729_
*775 _0730_
*776 _0731_
*777 _0732_
*778 _0733_
*779 _0734_
*780 _0735_
*781 _0736_
*782 _0737_
*783 _0738_
*784 _0739_
*785 _0740_
*786 _0741_
*787 _0742_
*788 _0743_
*789 _0744_
*790 _0745_
*791 _0746_
*792 _0747_
*793 _0748_
*794 _0749_
*795 _0750_
*796 _0751_
*797 _0752_
*798 _0753_
*799 _0754_
*800 _0755_
*801 _0756_
*802 _0757_
*803 _0758_
*804 _0759_
*805 _0760_
*806 _0761_
*807 _0762_
*808 _0763_
*809 _0764_
*810 _0765_
*811 _0766_
*812 _0767_
*813 _0768_
*814 _0769_
*815 _0770_
*816 _0771_
*817 _0772_
*818 _0773_
*819 _0774_
*820 _0775_
*821 _0776_
*822 _0777_
*823 _0778_
*824 _0779_
*825 _0780_
*826 _0781_
*827 _0782_
*828 _0783_
*829 _0784_
*830 _0785_
*831 _0786_
*832 _0787_
*833 _0788_
*834 _0789_
*835 _0790_
*836 _0791_
*837 _0792_
*838 _0793_
*839 _0794_
*840 _0795_
*841 _0796_
*842 _0797_
*843 _0798_
*844 _0799_
*845 _0800_
*846 _0801_
*847 _0802_
*848 _0803_
*849 _0804_
*850 _0805_
*851 _0806_
*852 _0807_
*853 _0808_
*854 _0809_
*855 _0810_
*856 _0811_
*857 _0812_
*858 _0813_
*859 _0814_
*860 _0815_
*861 _0816_
*862 _0817_
*863 _0818_
*864 _0819_
*865 _0820_
*866 _0821_
*867 _0822_
*868 _0823_
*869 _0824_
*870 _0825_
*871 _0826_
*872 _0827_
*873 _0828_
*874 _0829_
*875 _0830_
*876 _0831_
*877 _0832_
*878 _0833_
*879 _0834_
*880 _0835_
*881 _0836_
*882 _0837_
*883 _0838_
*884 _0839_
*885 _0840_
*886 _0841_
*887 _0842_
*888 _0843_
*889 _0844_
*890 _0845_
*891 _0846_
*892 _0847_
*893 _0848_
*894 _0849_
*895 _0850_
*896 _0851_
*897 _0852_
*898 _0853_
*899 _0854_
*900 _0855_
*901 _0856_
*902 _0857_
*903 _0858_
*904 _0859_
*905 _0860_
*906 _0861_
*907 _0862_
*908 _0863_
*909 _0864_
*910 _0865_
*911 _0866_
*912 _0867_
*913 _0868_
*914 _0869_
*915 _0870_
*916 _0871_
*917 _0872_
*918 _0873_
*919 _0874_
*920 _0875_
*921 _0876_
*922 _0877_
*923 _0878_
*924 _0879_
*925 _0880_
*926 _0881_
*927 _0882_
*928 _0883_
*929 _0884_
*930 _0885_
*931 _0886_
*932 _0887_
*933 _0888_
*934 _0889_
*935 _0890_
*936 _0891_
*937 _0892_
*938 _0893_
*939 _0894_
*940 _0895_
*941 _0896_
*942 _0897_
*943 _0898_
*944 _0899_
*945 _0900_
*946 _0901_
*947 _0902_
*948 _0903_
*949 _0904_
*950 _0905_
*951 _0906_
*952 _0907_
*953 _0908_
*954 _0909_
*955 _0910_
*956 _0911_
*957 _0912_
*958 _0913_
*959 _0914_
*960 _0915_
*961 _0916_
*962 _0917_
*963 _0918_
*964 _0919_
*965 _0920_
*966 _0921_
*967 _0922_
*968 _0923_
*969 _0924_
*970 _0925_
*971 _0926_
*972 _0927_
*973 _0928_
*974 _0929_
*975 _0930_
*976 _0931_
*977 _0932_
*978 _0933_
*979 _0934_
*980 _0935_
*981 _0936_
*982 _0937_
*983 _0938_
*984 _0939_
*985 _0940_
*986 _0941_
*987 _0942_
*988 _0943_
*989 _0944_
*990 _0945_
*991 _0946_
*992 _0947_
*993 _0948_
*994 _0949_
*995 _0950_
*996 _0951_
*997 _0952_
*998 _0953_
*999 _0954_
*1000 _0955_
*1001 _0956_
*1002 _0957_
*1003 _0958_
*1004 _0959_
*1005 _0960_
*1006 _0961_
*1007 _0962_
*1008 _0963_
*1009 _0964_
*1010 _0965_
*1011 _0966_
*1012 _0967_
*1013 _0968_
*1014 _0969_
*1015 _0970_
*1016 _0971_
*1017 _0972_
*1018 _0973_
*1019 _0974_
*1020 _0975_
*1021 _0976_
*1022 _0977_
*1023 _0978_
*1024 _0979_
*1025 _0980_
*1026 _0981_
*1027 _0982_
*1028 _0983_
*1029 _0984_
*1030 _0985_
*1031 _0986_
*1032 _0987_
*1033 _0988_
*1034 _0989_
*1035 _0990_
*1036 _0991_
*1037 _0992_
*1038 _0993_
*1039 _0994_
*1040 _0995_
*1041 _0996_
*1042 _0997_
*1043 _0998_
*1044 _0999_
*1045 _1000_
*1046 _1001_
*1047 _1002_
*1048 _1003_
*1049 _1004_
*1050 _1005_
*1051 _1006_
*1052 _1007_
*1053 _1008_
*1054 _1009_
*1055 _1010_
*1056 _1011_
*1057 _1012_
*1058 _1013_
*1059 _1014_
*1060 _1015_
*1061 _1016_
*1062 _1017_
*1063 _1018_
*1064 _1019_
*1065 _1020_
*1066 _1021_
*1067 _1022_
*1068 _1023_
*1069 _1024_
*1070 _1025_
*1071 _1026_
*1072 _1027_
*1073 _1028_
*1074 _1029_
*1075 _1030_
*1076 _1031_
*1077 _1032_
*1078 _1033_
*1079 _1034_
*1080 _1035_
*1081 _1036_
*1082 _1037_
*1083 _1038_
*1084 _1039_
*1085 _1040_
*1086 _1041_
*1087 _1042_
*1088 _1043_
*1089 _1044_
*1090 _1045_
*1091 _1046_
*1092 _1047_
*1093 _1048_
*1094 _1049_
*1095 _1050_
*1096 _1051_
*1097 _1052_
*1098 _1053_
*1099 _1054_
*1100 _1055_
*1101 _1056_
*1102 _1057_
*1103 _1058_
*1104 _1059_
*1105 _1060_
*1106 _1061_
*1107 _1062_
*1108 _1063_
*1109 _1064_
*1110 _1065_
*1111 _1066_
*1112 _1067_
*1113 _1068_
*1114 _1069_
*1115 _1070_
*1116 _1071_
*1117 _1072_
*1118 _1073_
*1119 _1074_
*1120 _1075_
*1121 _1076_
*1122 _1077_
*1123 _1078_
*1124 _1079_
*1125 _1080_
*1126 _1081_
*1127 _1082_
*1128 _1083_
*1129 _1084_
*1130 _1085_
*1131 _1086_
*1132 _1087_
*1133 _1088_
*1134 _1089_
*1135 _1090_
*1136 _1091_
*1137 _1092_
*1138 _1093_
*1139 _1094_
*1140 _1095_
*1141 _1096_
*1142 _1097_
*1143 _1098_
*1144 _1099_
*1145 _1100_
*1146 _1101_
*1147 _1102_
*1148 _1103_
*1149 _1104_
*1150 _1105_
*1151 _1106_
*1152 _1107_
*1153 _1108_
*1154 _1109_
*1155 _1110_
*1156 _1111_
*1157 _1112_
*1158 _1113_
*1159 _1114_
*1160 _1115_
*1161 _1116_
*1162 _1117_
*1163 _1118_
*1164 _1119_
*1165 _1120_
*1166 _1121_
*1167 _1122_
*1168 _1123_
*1169 _1124_
*1170 _1125_
*1171 _1126_
*1172 _1127_
*1173 _1128_
*1174 _1129_
*1175 _1130_
*1176 _1131_
*1177 _1132_
*1178 _1133_
*1179 _1134_
*1180 _1135_
*1181 _1136_
*1182 _1137_
*1183 _1138_
*1184 _1139_
*1185 _1140_
*1186 _1141_
*1187 _1142_
*1188 _1143_
*1189 _1144_
*1190 _1145_
*1191 _1146_
*1192 _1147_
*1193 _1148_
*1194 _1149_
*1195 _1150_
*1196 _1151_
*1197 _1152_
*1198 _1153_
*1199 _1154_
*1200 _1155_
*1201 _1156_
*1202 _1157_
*1203 _1158_
*1204 _1159_
*1205 _1160_
*1206 _1161_
*1207 _1162_
*1208 _1163_
*1209 _1164_
*1210 _1165_
*1211 _1166_
*1212 _1167_
*1213 _1168_
*1214 _1169_
*1215 _1170_
*1216 _1171_
*1217 _1172_
*1218 _1173_
*1219 _1174_
*1220 _1175_
*1221 _1176_
*1222 _1177_
*1223 _1178_
*1224 _1179_
*1225 _1180_
*1226 _1181_
*1227 _1182_
*1228 _1183_
*1229 _1184_
*1230 _1185_
*1231 _1186_
*1232 _1187_
*1233 _1188_
*1234 _1189_
*1235 _1190_
*1236 _1191_
*1237 _1192_
*1238 _1193_
*1239 _1194_
*1240 _1195_
*1241 _1196_
*1242 _1197_
*1243 _1198_
*1244 _1199_
*1245 _1200_
*1246 _1201_
*1247 _1202_
*1248 _1203_
*1249 _1204_
*1250 _1205_
*1251 _1206_
*1252 _1207_
*1253 _1208_
*1254 _1209_
*1255 _1210_
*1256 _1211_
*1257 _1212_
*1258 _1213_
*1259 _1214_
*1260 _1215_
*1261 _1216_
*1262 _1217_
*1263 _1218_
*1264 _1219_
*1265 _1220_
*1266 _1221_
*1267 _1222_
*1268 _1223_
*1269 _1224_
*1270 _1225_
*1271 _1226_
*1272 _1227_
*1273 _1228_
*1274 _1229_
*1275 _1230_
*1276 _1231_
*1277 _1232_
*1278 _1233_
*1279 _1234_
*1280 clknet_0_clk
*1281 clknet_1_0__leaf_clk
*1282 clknet_1_1__leaf_clk
*1283 hh1\.n\[0\]
*1284 hh1\.n\[1\]
*1285 hh1\.n\[2\]
*1286 hh1\.n\[3\]
*1287 hh1\.n\[4\]
*1288 hh1\.n\[5\]
*1289 hh1\.n\[6\]
*1290 hh1\.n\[7\]
*1291 net1
*1292 net10
*1293 net11
*1294 net12
*1295 net13
*1296 net2
*1297 net21
*1298 net3
*1299 net4
*1300 net5
*1301 net6
*1302 net7
*1303 net8
*1304 net9
*1305 ANTENNA_1
*1306 ANTENNA_2
*1307 ANTENNA_3
*1308 ANTENNA_4
*1309 ANTENNA_5
*1310 FILLER_0_0_109
*1311 FILLER_0_0_113
*1312 FILLER_0_0_125
*1313 FILLER_0_0_137
*1314 FILLER_0_0_141
*1315 FILLER_0_0_15
*1316 FILLER_0_0_153
*1317 FILLER_0_0_165
*1318 FILLER_0_0_169
*1319 FILLER_0_0_181
*1320 FILLER_0_0_193
*1321 FILLER_0_0_197
*1322 FILLER_0_0_209
*1323 FILLER_0_0_221
*1324 FILLER_0_0_225
*1325 FILLER_0_0_237
*1326 FILLER_0_0_249
*1327 FILLER_0_0_253
*1328 FILLER_0_0_265
*1329 FILLER_0_0_27
*1330 FILLER_0_0_277
*1331 FILLER_0_0_281
*1332 FILLER_0_0_29
*1333 FILLER_0_0_293
*1334 FILLER_0_0_3
*1335 FILLER_0_0_305
*1336 FILLER_0_0_309
*1337 FILLER_0_0_321
*1338 FILLER_0_0_333
*1339 FILLER_0_0_337
*1340 FILLER_0_0_349
*1341 FILLER_0_0_41
*1342 FILLER_0_0_53
*1343 FILLER_0_0_57
*1344 FILLER_0_0_69
*1345 FILLER_0_0_81
*1346 FILLER_0_0_85
*1347 FILLER_0_0_97
*1348 FILLER_0_10_107
*1349 FILLER_0_10_123
*1350 FILLER_0_10_137
*1351 FILLER_0_10_15
*1352 FILLER_0_10_175
*1353 FILLER_0_10_187
*1354 FILLER_0_10_195
*1355 FILLER_0_10_197
*1356 FILLER_0_10_210
*1357 FILLER_0_10_218
*1358 FILLER_0_10_234
*1359 FILLER_0_10_251
*1360 FILLER_0_10_253
*1361 FILLER_0_10_259
*1362 FILLER_0_10_27
*1363 FILLER_0_10_271
*1364 FILLER_0_10_279
*1365 FILLER_0_10_285
*1366 FILLER_0_10_29
*1367 FILLER_0_10_292
*1368 FILLER_0_10_3
*1369 FILLER_0_10_301
*1370 FILLER_0_10_307
*1371 FILLER_0_10_309
*1372 FILLER_0_10_318
*1373 FILLER_0_10_329
*1374 FILLER_0_10_349
*1375 FILLER_0_10_35
*1376 FILLER_0_10_64
*1377 FILLER_0_10_72
*1378 FILLER_0_11_104
*1379 FILLER_0_11_119
*1380 FILLER_0_11_15
*1381 FILLER_0_11_166
*1382 FILLER_0_11_176
*1383 FILLER_0_11_191
*1384 FILLER_0_11_208
*1385 FILLER_0_11_218
*1386 FILLER_0_11_231
*1387 FILLER_0_11_238
*1388 FILLER_0_11_268
*1389 FILLER_0_11_272
*1390 FILLER_0_11_289
*1391 FILLER_0_11_3
*1392 FILLER_0_11_314
*1393 FILLER_0_11_320
*1394 FILLER_0_11_326
*1395 FILLER_0_11_332
*1396 FILLER_0_11_337
*1397 FILLER_0_11_348
*1398 FILLER_0_11_39
*1399 FILLER_0_11_53
*1400 FILLER_0_11_63
*1401 FILLER_0_11_91
*1402 FILLER_0_11_97
*1403 FILLER_0_12_100
*1404 FILLER_0_12_114
*1405 FILLER_0_12_127
*1406 FILLER_0_12_15
*1407 FILLER_0_12_161
*1408 FILLER_0_12_180
*1409 FILLER_0_12_191
*1410 FILLER_0_12_195
*1411 FILLER_0_12_197
*1412 FILLER_0_12_201
*1413 FILLER_0_12_205
*1414 FILLER_0_12_244
*1415 FILLER_0_12_253
*1416 FILLER_0_12_265
*1417 FILLER_0_12_27
*1418 FILLER_0_12_277
*1419 FILLER_0_12_288
*1420 FILLER_0_12_294
*1421 FILLER_0_12_298
*1422 FILLER_0_12_3
*1423 FILLER_0_12_307
*1424 FILLER_0_12_329
*1425 FILLER_0_12_337
*1426 FILLER_0_12_343
*1427 FILLER_0_12_71
*1428 FILLER_0_12_75
*1429 FILLER_0_12_82
*1430 FILLER_0_13_100
*1431 FILLER_0_13_135
*1432 FILLER_0_13_15
*1433 FILLER_0_13_153
*1434 FILLER_0_13_169
*1435 FILLER_0_13_178
*1436 FILLER_0_13_182
*1437 FILLER_0_13_197
*1438 FILLER_0_13_217
*1439 FILLER_0_13_223
*1440 FILLER_0_13_225
*1441 FILLER_0_13_23
*1442 FILLER_0_13_235
*1443 FILLER_0_13_243
*1444 FILLER_0_13_247
*1445 FILLER_0_13_265
*1446 FILLER_0_13_278
*1447 FILLER_0_13_281
*1448 FILLER_0_13_285
*1449 FILLER_0_13_291
*1450 FILLER_0_13_3
*1451 FILLER_0_13_303
*1452 FILLER_0_13_315
*1453 FILLER_0_13_327
*1454 FILLER_0_13_337
*1455 FILLER_0_13_349
*1456 FILLER_0_13_47
*1457 FILLER_0_13_53
*1458 FILLER_0_13_57
*1459 FILLER_0_13_64
*1460 FILLER_0_14_106
*1461 FILLER_0_14_117
*1462 FILLER_0_14_15
*1463 FILLER_0_14_160
*1464 FILLER_0_14_175
*1465 FILLER_0_14_183
*1466 FILLER_0_14_197
*1467 FILLER_0_14_23
*1468 FILLER_0_14_245
*1469 FILLER_0_14_251
*1470 FILLER_0_14_263
*1471 FILLER_0_14_268
*1472 FILLER_0_14_283
*1473 FILLER_0_14_299
*1474 FILLER_0_14_3
*1475 FILLER_0_14_303
*1476 FILLER_0_14_307
*1477 FILLER_0_14_309
*1478 FILLER_0_14_319
*1479 FILLER_0_14_32
*1480 FILLER_0_14_334
*1481 FILLER_0_14_342
*1482 FILLER_0_14_350
*1483 FILLER_0_14_40
*1484 FILLER_0_14_59
*1485 FILLER_0_14_76
*1486 FILLER_0_14_98
*1487 FILLER_0_15_110
*1488 FILLER_0_15_15
*1489 FILLER_0_15_153
*1490 FILLER_0_15_166
*1491 FILLER_0_15_19
*1492 FILLER_0_15_196
*1493 FILLER_0_15_208
*1494 FILLER_0_15_220
*1495 FILLER_0_15_225
*1496 FILLER_0_15_234
*1497 FILLER_0_15_238
*1498 FILLER_0_15_242
*1499 FILLER_0_15_254
*1500 FILLER_0_15_270
*1501 FILLER_0_15_278
*1502 FILLER_0_15_287
*1503 FILLER_0_15_3
*1504 FILLER_0_15_306
*1505 FILLER_0_15_344
*1506 FILLER_0_15_350
*1507 FILLER_0_15_50
*1508 FILLER_0_15_57
*1509 FILLER_0_15_66
*1510 FILLER_0_15_96
*1511 FILLER_0_16_100
*1512 FILLER_0_16_112
*1513 FILLER_0_16_116
*1514 FILLER_0_16_128
*1515 FILLER_0_16_139
*1516 FILLER_0_16_148
*1517 FILLER_0_16_185
*1518 FILLER_0_16_19
*1519 FILLER_0_16_194
*1520 FILLER_0_16_202
*1521 FILLER_0_16_206
*1522 FILLER_0_16_214
*1523 FILLER_0_16_223
*1524 FILLER_0_16_235
*1525 FILLER_0_16_251
*1526 FILLER_0_16_263
*1527 FILLER_0_16_27
*1528 FILLER_0_16_271
*1529 FILLER_0_16_280
*1530 FILLER_0_16_29
*1531 FILLER_0_16_294
*1532 FILLER_0_16_3
*1533 FILLER_0_16_300
*1534 FILLER_0_16_307
*1535 FILLER_0_16_313
*1536 FILLER_0_16_321
*1537 FILLER_0_16_350
*1538 FILLER_0_16_37
*1539 FILLER_0_16_52
*1540 FILLER_0_16_69
*1541 FILLER_0_16_83
*1542 FILLER_0_16_85
*1543 FILLER_0_16_94
*1544 FILLER_0_17_101
*1545 FILLER_0_17_105
*1546 FILLER_0_17_111
*1547 FILLER_0_17_124
*1548 FILLER_0_17_130
*1549 FILLER_0_17_153
*1550 FILLER_0_17_162
*1551 FILLER_0_17_169
*1552 FILLER_0_17_17
*1553 FILLER_0_17_181
*1554 FILLER_0_17_198
*1555 FILLER_0_17_202
*1556 FILLER_0_17_212
*1557 FILLER_0_17_218
*1558 FILLER_0_17_23
*1559 FILLER_0_17_232
*1560 FILLER_0_17_236
*1561 FILLER_0_17_240
*1562 FILLER_0_17_248
*1563 FILLER_0_17_258
*1564 FILLER_0_17_262
*1565 FILLER_0_17_271
*1566 FILLER_0_17_279
*1567 FILLER_0_17_281
*1568 FILLER_0_17_294
*1569 FILLER_0_17_3
*1570 FILLER_0_17_309
*1571 FILLER_0_17_31
*1572 FILLER_0_17_334
*1573 FILLER_0_17_337
*1574 FILLER_0_17_342
*1575 FILLER_0_17_350
*1576 FILLER_0_17_39
*1577 FILLER_0_17_46
*1578 FILLER_0_17_57
*1579 FILLER_0_17_69
*1580 FILLER_0_17_77
*1581 FILLER_0_17_83
*1582 FILLER_0_17_94
*1583 FILLER_0_18_103
*1584 FILLER_0_18_11
*1585 FILLER_0_18_114
*1586 FILLER_0_18_127
*1587 FILLER_0_18_139
*1588 FILLER_0_18_178
*1589 FILLER_0_18_184
*1590 FILLER_0_18_195
*1591 FILLER_0_18_20
*1592 FILLER_0_18_213
*1593 FILLER_0_18_238
*1594 FILLER_0_18_250
*1595 FILLER_0_18_253
*1596 FILLER_0_18_263
*1597 FILLER_0_18_276
*1598 FILLER_0_18_282
*1599 FILLER_0_18_294
*1600 FILLER_0_18_3
*1601 FILLER_0_18_306
*1602 FILLER_0_18_309
*1603 FILLER_0_18_321
*1604 FILLER_0_18_327
*1605 FILLER_0_18_34
*1606 FILLER_0_18_348
*1607 FILLER_0_18_61
*1608 FILLER_0_18_83
*1609 FILLER_0_18_95
*1610 FILLER_0_19_118
*1611 FILLER_0_19_132
*1612 FILLER_0_19_144
*1613 FILLER_0_19_153
*1614 FILLER_0_19_162
*1615 FILLER_0_19_169
*1616 FILLER_0_19_179
*1617 FILLER_0_19_183
*1618 FILLER_0_19_187
*1619 FILLER_0_19_194
*1620 FILLER_0_19_202
*1621 FILLER_0_19_219
*1622 FILLER_0_19_22
*1623 FILLER_0_19_223
*1624 FILLER_0_19_225
*1625 FILLER_0_19_265
*1626 FILLER_0_19_273
*1627 FILLER_0_19_278
*1628 FILLER_0_19_286
*1629 FILLER_0_19_292
*1630 FILLER_0_19_299
*1631 FILLER_0_19_3
*1632 FILLER_0_19_30
*1633 FILLER_0_19_316
*1634 FILLER_0_19_337
*1635 FILLER_0_19_349
*1636 FILLER_0_19_40
*1637 FILLER_0_19_44
*1638 FILLER_0_19_51
*1639 FILLER_0_19_55
*1640 FILLER_0_19_57
*1641 FILLER_0_19_69
*1642 FILLER_0_19_76
*1643 FILLER_0_19_82
*1644 FILLER_0_1_105
*1645 FILLER_0_1_111
*1646 FILLER_0_1_113
*1647 FILLER_0_1_125
*1648 FILLER_0_1_137
*1649 FILLER_0_1_149
*1650 FILLER_0_1_15
*1651 FILLER_0_1_161
*1652 FILLER_0_1_167
*1653 FILLER_0_1_169
*1654 FILLER_0_1_181
*1655 FILLER_0_1_193
*1656 FILLER_0_1_205
*1657 FILLER_0_1_217
*1658 FILLER_0_1_223
*1659 FILLER_0_1_225
*1660 FILLER_0_1_237
*1661 FILLER_0_1_249
*1662 FILLER_0_1_261
*1663 FILLER_0_1_27
*1664 FILLER_0_1_273
*1665 FILLER_0_1_279
*1666 FILLER_0_1_281
*1667 FILLER_0_1_293
*1668 FILLER_0_1_3
*1669 FILLER_0_1_305
*1670 FILLER_0_1_317
*1671 FILLER_0_1_329
*1672 FILLER_0_1_335
*1673 FILLER_0_1_337
*1674 FILLER_0_1_349
*1675 FILLER_0_1_39
*1676 FILLER_0_1_51
*1677 FILLER_0_1_55
*1678 FILLER_0_1_57
*1679 FILLER_0_1_69
*1680 FILLER_0_1_81
*1681 FILLER_0_1_93
*1682 FILLER_0_20_13
*1683 FILLER_0_20_137
*1684 FILLER_0_20_141
*1685 FILLER_0_20_145
*1686 FILLER_0_20_175
*1687 FILLER_0_20_188
*1688 FILLER_0_20_194
*1689 FILLER_0_20_203
*1690 FILLER_0_20_209
*1691 FILLER_0_20_21
*1692 FILLER_0_20_213
*1693 FILLER_0_20_217
*1694 FILLER_0_20_221
*1695 FILLER_0_20_227
*1696 FILLER_0_20_233
*1697 FILLER_0_20_251
*1698 FILLER_0_20_285
*1699 FILLER_0_20_29
*1700 FILLER_0_20_295
*1701 FILLER_0_20_3
*1702 FILLER_0_20_300
*1703 FILLER_0_20_314
*1704 FILLER_0_20_320
*1705 FILLER_0_20_328
*1706 FILLER_0_20_332
*1707 FILLER_0_20_346
*1708 FILLER_0_20_350
*1709 FILLER_0_20_45
*1710 FILLER_0_20_65
*1711 FILLER_0_20_83
*1712 FILLER_0_20_9
*1713 FILLER_0_20_91
*1714 FILLER_0_20_98
*1715 FILLER_0_21_100
*1716 FILLER_0_21_123
*1717 FILLER_0_21_129
*1718 FILLER_0_21_141
*1719 FILLER_0_21_147
*1720 FILLER_0_21_153
*1721 FILLER_0_21_169
*1722 FILLER_0_21_180
*1723 FILLER_0_21_192
*1724 FILLER_0_21_209
*1725 FILLER_0_21_21
*1726 FILLER_0_21_220
*1727 FILLER_0_21_232
*1728 FILLER_0_21_240
*1729 FILLER_0_21_248
*1730 FILLER_0_21_256
*1731 FILLER_0_21_264
*1732 FILLER_0_21_27
*1733 FILLER_0_21_276
*1734 FILLER_0_21_281
*1735 FILLER_0_21_285
*1736 FILLER_0_21_292
*1737 FILLER_0_21_298
*1738 FILLER_0_21_3
*1739 FILLER_0_21_310
*1740 FILLER_0_21_320
*1741 FILLER_0_21_332
*1742 FILLER_0_21_337
*1743 FILLER_0_21_34
*1744 FILLER_0_21_345
*1745 FILLER_0_21_46
*1746 FILLER_0_21_50
*1747 FILLER_0_21_60
*1748 FILLER_0_21_68
*1749 FILLER_0_21_76
*1750 FILLER_0_21_88
*1751 FILLER_0_22_109
*1752 FILLER_0_22_126
*1753 FILLER_0_22_137
*1754 FILLER_0_22_14
*1755 FILLER_0_22_151
*1756 FILLER_0_22_162
*1757 FILLER_0_22_166
*1758 FILLER_0_22_174
*1759 FILLER_0_22_182
*1760 FILLER_0_22_193
*1761 FILLER_0_22_200
*1762 FILLER_0_22_204
*1763 FILLER_0_22_216
*1764 FILLER_0_22_22
*1765 FILLER_0_22_232
*1766 FILLER_0_22_248
*1767 FILLER_0_22_253
*1768 FILLER_0_22_257
*1769 FILLER_0_22_268
*1770 FILLER_0_22_280
*1771 FILLER_0_22_288
*1772 FILLER_0_22_292
*1773 FILLER_0_22_299
*1774 FILLER_0_22_3
*1775 FILLER_0_22_307
*1776 FILLER_0_22_309
*1777 FILLER_0_22_325
*1778 FILLER_0_22_346
*1779 FILLER_0_22_350
*1780 FILLER_0_22_41
*1781 FILLER_0_22_62
*1782 FILLER_0_22_73
*1783 FILLER_0_22_81
*1784 FILLER_0_22_85
*1785 FILLER_0_23_100
*1786 FILLER_0_23_104
*1787 FILLER_0_23_113
*1788 FILLER_0_23_122
*1789 FILLER_0_23_135
*1790 FILLER_0_23_143
*1791 FILLER_0_23_167
*1792 FILLER_0_23_174
*1793 FILLER_0_23_202
*1794 FILLER_0_23_21
*1795 FILLER_0_23_214
*1796 FILLER_0_23_225
*1797 FILLER_0_23_241
*1798 FILLER_0_23_247
*1799 FILLER_0_23_262
*1800 FILLER_0_23_278
*1801 FILLER_0_23_286
*1802 FILLER_0_23_296
*1803 FILLER_0_23_3
*1804 FILLER_0_23_311
*1805 FILLER_0_23_328
*1806 FILLER_0_23_337
*1807 FILLER_0_23_346
*1808 FILLER_0_23_350
*1809 FILLER_0_23_42
*1810 FILLER_0_23_51
*1811 FILLER_0_23_57
*1812 FILLER_0_23_82
*1813 FILLER_0_23_96
*1814 FILLER_0_24_104
*1815 FILLER_0_24_112
*1816 FILLER_0_24_122
*1817 FILLER_0_24_138
*1818 FILLER_0_24_141
*1819 FILLER_0_24_146
*1820 FILLER_0_24_16
*1821 FILLER_0_24_194
*1822 FILLER_0_24_197
*1823 FILLER_0_24_211
*1824 FILLER_0_24_226
*1825 FILLER_0_24_23
*1826 FILLER_0_24_234
*1827 FILLER_0_24_243
*1828 FILLER_0_24_250
*1829 FILLER_0_24_256
*1830 FILLER_0_24_264
*1831 FILLER_0_24_27
*1832 FILLER_0_24_272
*1833 FILLER_0_24_282
*1834 FILLER_0_24_286
*1835 FILLER_0_24_29
*1836 FILLER_0_24_298
*1837 FILLER_0_24_3
*1838 FILLER_0_24_306
*1839 FILLER_0_24_309
*1840 FILLER_0_24_321
*1841 FILLER_0_24_329
*1842 FILLER_0_24_349
*1843 FILLER_0_24_37
*1844 FILLER_0_24_41
*1845 FILLER_0_24_59
*1846 FILLER_0_24_67
*1847 FILLER_0_24_7
*1848 FILLER_0_24_82
*1849 FILLER_0_24_85
*1850 FILLER_0_24_89
*1851 FILLER_0_25_104
*1852 FILLER_0_25_11
*1853 FILLER_0_25_113
*1854 FILLER_0_25_122
*1855 FILLER_0_25_147
*1856 FILLER_0_25_169
*1857 FILLER_0_25_186
*1858 FILLER_0_25_207
*1859 FILLER_0_25_211
*1860 FILLER_0_25_230
*1861 FILLER_0_25_234
*1862 FILLER_0_25_241
*1863 FILLER_0_25_25
*1864 FILLER_0_25_253
*1865 FILLER_0_25_270
*1866 FILLER_0_25_278
*1867 FILLER_0_25_294
*1868 FILLER_0_25_298
*1869 FILLER_0_25_3
*1870 FILLER_0_25_312
*1871 FILLER_0_25_330
*1872 FILLER_0_25_337
*1873 FILLER_0_25_341
*1874 FILLER_0_25_349
*1875 FILLER_0_25_37
*1876 FILLER_0_25_43
*1877 FILLER_0_25_51
*1878 FILLER_0_25_55
*1879 FILLER_0_25_63
*1880 FILLER_0_25_75
*1881 FILLER_0_25_87
*1882 FILLER_0_25_96
*1883 FILLER_0_26_103
*1884 FILLER_0_26_111
*1885 FILLER_0_26_131
*1886 FILLER_0_26_139
*1887 FILLER_0_26_141
*1888 FILLER_0_26_169
*1889 FILLER_0_26_19
*1890 FILLER_0_26_195
*1891 FILLER_0_26_203
*1892 FILLER_0_26_227
*1893 FILLER_0_26_251
*1894 FILLER_0_26_253
*1895 FILLER_0_26_265
*1896 FILLER_0_26_27
*1897 FILLER_0_26_277
*1898 FILLER_0_26_283
*1899 FILLER_0_26_299
*1900 FILLER_0_26_3
*1901 FILLER_0_26_316
*1902 FILLER_0_26_326
*1903 FILLER_0_26_348
*1904 FILLER_0_26_38
*1905 FILLER_0_26_42
*1906 FILLER_0_26_50
*1907 FILLER_0_26_58
*1908 FILLER_0_26_83
*1909 FILLER_0_26_99
*1910 FILLER_0_27_108
*1911 FILLER_0_27_113
*1912 FILLER_0_27_119
*1913 FILLER_0_27_146
*1914 FILLER_0_27_153
*1915 FILLER_0_27_169
*1916 FILLER_0_27_17
*1917 FILLER_0_27_181
*1918 FILLER_0_27_188
*1919 FILLER_0_27_223
*1920 FILLER_0_27_239
*1921 FILLER_0_27_251
*1922 FILLER_0_27_259
*1923 FILLER_0_27_275
*1924 FILLER_0_27_279
*1925 FILLER_0_27_294
*1926 FILLER_0_27_3
*1927 FILLER_0_27_300
*1928 FILLER_0_27_304
*1929 FILLER_0_27_315
*1930 FILLER_0_27_319
*1931 FILLER_0_27_32
*1932 FILLER_0_27_329
*1933 FILLER_0_27_335
*1934 FILLER_0_27_337
*1935 FILLER_0_27_349
*1936 FILLER_0_27_50
*1937 FILLER_0_27_57
*1938 FILLER_0_27_70
*1939 FILLER_0_27_83
*1940 FILLER_0_27_9
*1941 FILLER_0_28_101
*1942 FILLER_0_28_109
*1943 FILLER_0_28_12