*SPEF "ieee 1481-1999"
*DESIGN "tt_um_jmadden173_delta_modulation"
*DATE "11:11:11 Fri 11 11, 1111"
*VENDOR "OpenRCX"
*PROGRAM "Parallel Extraction"
*VERSION "1.0"
*DESIGN_FLOW "NAME_SCOPE LOCAL" "PIN_CAP NONE"
*DIVIDER /
*DELIMITER :
*BUS_DELIMITER []
*T_UNIT 1 NS
*C_UNIT 1 PF
*R_UNIT 1 OHM
*L_UNIT 1 HENRY

*NAME_MAP
*3 clk
*4 ena
*5 rst_n
*6 ui_in[0]
*7 ui_in[1]
*8 ui_in[2]
*9 ui_in[3]
*10 ui_in[4]
*11 ui_in[5]
*12 ui_in[6]
*13 ui_in[7]
*14 uio_in[0]
*15 uio_in[1]
*16 uio_in[2]
*17 uio_in[3]
*18 uio_in[4]
*19 uio_in[5]
*20 uio_in[6]
*21 uio_in[7]
*22 net15
*23 net16
*24 net31
*25 net32
*26 net17
*27 net18
*28 net19
*29 net20
*30 net21
*31 net22
*32 net23
*33 net24
*34 net25
*35 net26
*36 net27
*37 net28
*38 uo_out[0]
*39 uo_out[1]
*40 net29
*41 net30
*42 uo_out[4]
*43 uo_out[5]
*44 uo_out[6]
*45 uo_out[7]
*46 _000_
*47 _001_
*48 _002_
*49 _003_
*50 _004_
*51 _005_
*52 _006_
*53 _007_
*54 _008_
*55 _009_
*56 _010_
*57 _011_
*58 _012_
*59 _013_
*60 _014_
*61 _015_
*62 _016_
*63 _017_
*64 _018_
*65 _019_
*66 _020_
*67 _021_
*68 _022_
*69 _023_
*70 _024_
*71 _025_
*72 _026_
*73 _027_
*74 _028_
*75 _029_
*76 _030_
*77 _031_
*78 _032_
*79 _033_
*80 _034_
*81 _035_
*82 _036_
*83 _037_
*84 _038_
*85 _039_
*86 _040_
*87 clknet_0_clk
*88 clknet_1_0__leaf_clk
*89 clknet_1_1__leaf_clk
*90 delta\.data\[0\]
*91 delta\.data\[1\]
*92 delta\.data\[2\]
*93 delta\.data\[3\]
*94 delta\.threshold\[0\]
*95 delta\.threshold\[1\]
*96 delta\.threshold\[2\]
*97 delta\.threshold\[3\]
*98 net1
*99 net10
*100 net11
*101 net12
*102 net13
*103 net14
*104 net2
*105 net3
*106 net33
*107 net34
*108 net4
*109 net5
*110 net6
*111 net7
*112 net8
*113 net9
*114 FILLER_0_0_109
*115 FILLER_0_0_113
*116 FILLER_0_0_125
*117 FILLER_0_0_137
*118 FILLER_0_0_141
*119 FILLER_0_0_15
*120 FILLER_0_0_153
*121 FILLER_0_0_165
*122 FILLER_0_0_169
*123 FILLER_0_0_181
*124 FILLER_0_0_193
*125 FILLER_0_0_197
*126 FILLER_0_0_209
*127 FILLER_0_0_221
*128 FILLER_0_0_225
*129 FILLER_0_0_237
*130 FILLER_0_0_249
*131 FILLER_0_0_253
*132 FILLER_0_0_265
*133 FILLER_0_0_27
*134 FILLER_0_0_277
*135 FILLER_0_0_281
*136 FILLER_0_0_29
*137 FILLER_0_0_293
*138 FILLER_0_0_3
*139 FILLER_0_0_305
*140 FILLER_0_0_309
*141 FILLER_0_0_321
*142 FILLER_0_0_333
*143 FILLER_0_0_337
*144 FILLER_0_0_349
*145 FILLER_0_0_41
*146 FILLER_0_0_53
*147 FILLER_0_0_57
*148 FILLER_0_0_69
*149 FILLER_0_0_81
*150 FILLER_0_0_85
*151 FILLER_0_0_97
*152 FILLER_0_10_109
*153 FILLER_0_10_121
*154 FILLER_0_10_133
*155 FILLER_0_10_139
*156 FILLER_0_10_141
*157 FILLER_0_10_15
*158 FILLER_0_10_153
*159 FILLER_0_10_165
*160 FILLER_0_10_177
*161 FILLER_0_10_189
*162 FILLER_0_10_195
*163 FILLER_0_10_197
*164 FILLER_0_10_209
*165 FILLER_0_10_221
*166 FILLER_0_10_233
*167 FILLER_0_10_245
*168 FILLER_0_10_251
*169 FILLER_0_10_253
*170 FILLER_0_10_265
*171 FILLER_0_10_27
*172 FILLER_0_10_277
*173 FILLER_0_10_289
*174 FILLER_0_10_29
*175 FILLER_0_10_3
*176 FILLER_0_10_301
*177 FILLER_0_10_307
*178 FILLER_0_10_309
*179 FILLER_0_10_321
*180 FILLER_0_10_333
*181 FILLER_0_10_345
*182 FILLER_0_10_41
*183 FILLER_0_10_53
*184 FILLER_0_10_65
*185 FILLER_0_10_77
*186 FILLER_0_10_83
*187 FILLER_0_10_85
*188 FILLER_0_10_97
*189 FILLER_0_11_105
*190 FILLER_0_11_111
*191 FILLER_0_11_113
*192 FILLER_0_11_125
*193 FILLER_0_11_137
*194 FILLER_0_11_149
*195 FILLER_0_11_15
*196 FILLER_0_11_161
*197 FILLER_0_11_167
*198 FILLER_0_11_169
*199 FILLER_0_11_181
*200 FILLER_0_11_193
*201 FILLER_0_11_205
*202 FILLER_0_11_217
*203 FILLER_0_11_223
*204 FILLER_0_11_225
*205 FILLER_0_11_237
*206 FILLER_0_11_249
*207 FILLER_0_11_261
*208 FILLER_0_11_27
*209 FILLER_0_11_273
*210 FILLER_0_11_279
*211 FILLER_0_11_281
*212 FILLER_0_11_293
*213 FILLER_0_11_3
*214 FILLER_0_11_305
*215 FILLER_0_11_317
*216 FILLER_0_11_329
*217 FILLER_0_11_335
*218 FILLER_0_11_337
*219 FILLER_0_11_349
*220 FILLER_0_11_39
*221 FILLER_0_11_51
*222 FILLER_0_11_55
*223 FILLER_0_11_57
*224 FILLER_0_11_69
*225 FILLER_0_11_81
*226 FILLER_0_11_93
*227 FILLER_0_12_109
*228 FILLER_0_12_121
*229 FILLER_0_12_133
*230 FILLER_0_12_139
*231 FILLER_0_12_141
*232 FILLER_0_12_15
*233 FILLER_0_12_153
*234 FILLER_0_12_165
*235 FILLER_0_12_177
*236 FILLER_0_12_189
*237 FILLER_0_12_195
*238 FILLER_0_12_197
*239 FILLER_0_12_209
*240 FILLER_0_12_221
*241 FILLER_0_12_233
*242 FILLER_0_12_245
*243 FILLER_0_12_251
*244 FILLER_0_12_253
*245 FILLER_0_12_265
*246 FILLER_0_12_27
*247 FILLER_0_12_277
*248 FILLER_0_12_289
*249 FILLER_0_12_29
*250 FILLER_0_12_3
*251 FILLER_0_12_301
*252 FILLER_0_12_307
*253 FILLER_0_12_309
*254 FILLER_0_12_321
*255 FILLER_0_12_333
*256 FILLER_0_12_345
*257 FILLER_0_12_41
*258 FILLER_0_12_53
*259 FILLER_0_12_65
*260 FILLER_0_12_77
*261 FILLER_0_12_83
*262 FILLER_0_12_85
*263 FILLER_0_12_97
*264 FILLER_0_13_105
*265 FILLER_0_13_111
*266 FILLER_0_13_113
*267 FILLER_0_13_125
*268 FILLER_0_13_137
*269 FILLER_0_13_149
*270 FILLER_0_13_15
*271 FILLER_0_13_161
*272 FILLER_0_13_167
*273 FILLER_0_13_169
*274 FILLER_0_13_181
*275 FILLER_0_13_193
*276 FILLER_0_13_205
*277 FILLER_0_13_217
*278 FILLER_0_13_223
*279 FILLER_0_13_225
*280 FILLER_0_13_237
*281 FILLER_0_13_249
*282 FILLER_0_13_261
*283 FILLER_0_13_27
*284 FILLER_0_13_273
*285 FILLER_0_13_279
*286 FILLER_0_13_281
*287 FILLER_0_13_293
*288 FILLER_0_13_3
*289 FILLER_0_13_305
*290 FILLER_0_13_317
*291 FILLER_0_13_329
*292 FILLER_0_13_335
*293 FILLER_0_13_337
*294 FILLER_0_13_349
*295 FILLER_0_13_39
*296 FILLER_0_13_51
*297 FILLER_0_13_55
*298 FILLER_0_13_57
*299 FILLER_0_13_69
*300 FILLER_0_13_81
*301 FILLER_0_13_93
*302 FILLER_0_14_109
*303 FILLER_0_14_121
*304 FILLER_0_14_133
*305 FILLER_0_14_139
*306 FILLER_0_14_141
*307 FILLER_0_14_15
*308 FILLER_0_14_153
*309 FILLER_0_14_165
*310 FILLER_0_14_177
*311 FILLER_0_14_189
*312 FILLER_0_14_195
*313 FILLER_0_14_197
*314 FILLER_0_14_209
*315 FILLER_0_14_221
*316 FILLER_0_14_233
*317 FILLER_0_14_245
*318 FILLER_0_14_251
*319 FILLER_0_14_253
*320 FILLER_0_14_265
*321 FILLER_0_14_27
*322 FILLER_0_14_277
*323 FILLER_0_14_289
*324 FILLER_0_14_29
*325 FILLER_0_14_3
*326 FILLER_0_14_301
*327 FILLER_0_14_307
*328 FILLER_0_14_309
*329 FILLER_0_14_321
*330 FILLER_0_14_333
*331 FILLER_0_14_345
*332 FILLER_0_14_41
*333 FILLER_0_14_53
*334 FILLER_0_14_65
*335 FILLER_0_14_77
*336 FILLER_0_14_83
*337 FILLER_0_14_85
*338 FILLER_0_14_97
*339 FILLER_0_15_105
*340 FILLER_0_15_111
*341 FILLER_0_15_113
*342 FILLER_0_15_125
*343 FILLER_0_15_137
*344 FILLER_0_15_149
*345 FILLER_0_15_15
*346 FILLER_0_15_161
*347 FILLER_0_15_167
*348 FILLER_0_15_169
*349 FILLER_0_15_181
*350 FILLER_0_15_193
*351 FILLER_0_15_205
*352 FILLER_0_15_217
*353 FILLER_0_15_223
*354 FILLER_0_15_225
*355 FILLER_0_15_237
*356 FILLER_0_15_249
*357 FILLER_0_15_261
*358 FILLER_0_15_27
*359 FILLER_0_15_273
*360 FILLER_0_15_279
*361 FILLER_0_15_281
*362 FILLER_0_15_293
*363 FILLER_0_15_3
*364 FILLER_0_15_305
*365 FILLER_0_15_317
*366 FILLER_0_15_329
*367 FILLER_0_15_335
*368 FILLER_0_15_337
*369 FILLER_0_15_349
*370 FILLER_0_15_39
*371 FILLER_0_15_51
*372 FILLER_0_15_55
*373 FILLER_0_15_57
*374 FILLER_0_15_69
*375 FILLER_0_15_81
*376 FILLER_0_15_93
*377 FILLER_0_16_109
*378 FILLER_0_16_121
*379 FILLER_0_16_133
*380 FILLER_0_16_139
*381 FILLER_0_16_141
*382 FILLER_0_16_15
*383 FILLER_0_16_153
*384 FILLER_0_16_165
*385 FILLER_0_16_177
*386 FILLER_0_16_189
*387 FILLER_0_16_195
*388 FILLER_0_16_197
*389 FILLER_0_16_209
*390 FILLER_0_16_221
*391 FILLER_0_16_233
*392 FILLER_0_16_245
*393 FILLER_0_16_251
*394 FILLER_0_16_253
*395 FILLER_0_16_265
*396 FILLER_0_16_27
*397 FILLER_0_16_277
*398 FILLER_0_16_289
*399 FILLER_0_16_29
*400 FILLER_0_16_3
*401 FILLER_0_16_301
*402 FILLER_0_16_307
*403 FILLER_0_16_309
*404 FILLER_0_16_321
*405 FILLER_0_16_333
*406 FILLER_0_16_345
*407 FILLER_0_16_41
*408 FILLER_0_16_53
*409 FILLER_0_16_65
*410 FILLER_0_16_77
*411 FILLER_0_16_83
*412 FILLER_0_16_85
*413 FILLER_0_16_97
*414 FILLER_0_17_105
*415 FILLER_0_17_111
*416 FILLER_0_17_113
*417 FILLER_0_17_125
*418 FILLER_0_17_137
*419 FILLER_0_17_149
*420 FILLER_0_17_15
*421 FILLER_0_17_161
*422 FILLER_0_17_167
*423 FILLER_0_17_169
*424 FILLER_0_17_181
*425 FILLER_0_17_193
*426 FILLER_0_17_205
*427 FILLER_0_17_217
*428 FILLER_0_17_223
*429 FILLER_0_17_225
*430 FILLER_0_17_237
*431 FILLER_0_17_249
*432 FILLER_0_17_261
*433 FILLER_0_17_27
*434 FILLER_0_17_273
*435 FILLER_0_17_279
*436 FILLER_0_17_281
*437 FILLER_0_17_293
*438 FILLER_0_17_3
*439 FILLER_0_17_305
*440 FILLER_0_17_317
*441 FILLER_0_17_329
*442 FILLER_0_17_335
*443 FILLER_0_17_337
*444 FILLER_0_17_349
*445 FILLER_0_17_39
*446 FILLER_0_17_51
*447 FILLER_0_17_55
*448 FILLER_0_17_57
*449 FILLER_0_17_69
*450 FILLER_0_17_81
*451 FILLER_0_17_93
*452 FILLER_0_18_109
*453 FILLER_0_18_121
*454 FILLER_0_18_133
*455 FILLER_0_18_139
*456 FILLER_0_18_141
*457 FILLER_0_18_15
*458 FILLER_0_18_153
*459 FILLER_0_18_165
*460 FILLER_0_18_177
*461 FILLER_0_18_189
*462 FILLER_0_18_195
*463 FILLER_0_18_197
*464 FILLER_0_18_209
*465 FILLER_0_18_221
*466 FILLER_0_18_233
*467 FILLER_0_18_245
*468 FILLER_0_18_251
*469 FILLER_0_18_253
*470 FILLER_0_18_265
*471 FILLER_0_18_27
*472 FILLER_0_18_277
*473 FILLER_0_18_289
*474 FILLER_0_18_29
*475 FILLER_0_18_3
*476 FILLER_0_18_301
*477 FILLER_0_18_307
*478 FILLER_0_18_309
*479 FILLER_0_18_321
*480 FILLER_0_18_333
*481 FILLER_0_18_345
*482 FILLER_0_18_41
*483 FILLER_0_18_53
*484 FILLER_0_18_65
*485 FILLER_0_18_77
*486 FILLER_0_18_83
*487 FILLER_0_18_85
*488 FILLER_0_18_97
*489 FILLER_0_19_105
*490 FILLER_0_19_111
*491 FILLER_0_19_113
*492 FILLER_0_19_125
*493 FILLER_0_19_137
*494 FILLER_0_19_149
*495 FILLER_0_19_15
*496 FILLER_0_19_161
*497 FILLER_0_19_167
*498 FILLER_0_19_169
*499 FILLER_0_19_181
*500 FILLER_0_19_193
*501 FILLER_0_19_205
*502 FILLER_0_19_217
*503 FILLER_0_19_223
*504 FILLER_0_19_225
*505 FILLER_0_19_237
*506 FILLER_0_19_249
*507 FILLER_0_19_261
*508 FILLER_0_19_27
*509 FILLER_0_19_273
*510 FILLER_0_19_279
*511 FILLER_0_19_281
*512 FILLER_0_19_293
*513 FILLER_0_19_3
*514 FILLER_0_19_305
*515 FILLER_0_19_317
*516 FILLER_0_19_329
*517 FILLER_0_19_335
*518 FILLER_0_19_337
*519 FILLER_0_19_349
*520 FILLER_0_19_39
*521 FILLER_0_19_51
*522 FILLER_0_19_55
*523 FILLER_0_19_57
*524 FILLER_0_19_69
*525 FILLER_0_19_81
*526 FILLER_0_19_93
*527 FILLER_0_1_105
*528 FILLER_0_1_111
*529 FILLER_0_1_113
*530 FILLER_0_1_125
*531 FILLER_0_1_137
*532 FILLER_0_1_149
*533 FILLER_0_1_15
*534 FILLER_0_1_161
*535 FILLER_0_1_167
*536 FILLER_0_1_169
*537 FILLER_0_1_181
*538 FILLER_0_1_193
*539 FILLER_0_1_205
*540 FILLER_0_1_217
*541 FILLER_0_1_223
*542 FILLER_0_1_225
*543 FILLER_0_1_237
*544 FILLER_0_1_249
*545 FILLER_0_1_261
*546 FILLER_0_1_27
*547 FILLER_0_1_273
*548 FILLER_0_1_279
*549 FILLER_0_1_281
*550 FILLER_0_1_293
*551 FILLER_0_1_3
*552 FILLER_0_1_305
*553 FILLER_0_1_317
*554 FILLER_0_1_329
*555 FILLER_0_1_335
*556 FILLER_0_1_337
*557 FILLER_0_1_349
*558 FILLER_0_1_39
*559 FILLER_0_1_51
*560 FILLER_0_1_55
*561 FILLER_0_1_57
*562 FILLER_0_1_69
*563 FILLER_0_1_81
*564 FILLER_0_1_93
*565 FILLER_0_20_109
*566 FILLER_0_20_121
*567 FILLER_0_20_133
*568 FILLER_0_20_139
*569 FILLER_0_20_141
*570 FILLER_0_20_15
*571 FILLER_0_20_153
*572 FILLER_0_20_165
*573 FILLER_0_20_177
*574 FILLER_0_20_189
*575 FILLER_0_20_195
*576 FILLER_0_20_197
*577 FILLER_0_20_209
*578 FILLER_0_20_221
*579 FILLER_0_20_233
*580 FILLER_0_20_245
*581 FILLER_0_20_251
*582 FILLER_0_20_253
*583 FILLER_0_20_265
*584 FILLER_0_20_27
*585 FILLER_0_20_277
*586 FILLER_0_20_289
*587 FILLER_0_20_29
*588 FILLER_0_20_3
*589 FILLER_0_20_301
*590 FILLER_0_20_307
*591 FILLER_0_20_309
*592 FILLER_0_20_321
*593 FILLER_0_20_333
*594 FILLER_0_20_345
*595 FILLER_0_20_41
*596 FILLER_0_20_53
*597 FILLER_0_20_65
*598 FILLER_0_20_77
*599 FILLER_0_20_83
*600 FILLER_0_20_85
*601 FILLER_0_20_97
*602 FILLER_0_21_105
*603 FILLER_0_21_111
*604 FILLER_0_21_113
*605 FILLER_0_21_125
*606 FILLER_0_21_137
*607 FILLER_0_21_149
*608 FILLER_0_21_15
*609 FILLER_0_21_161
*610 FILLER_0_21_167
*611 FILLER_0_21_169
*612 FILLER_0_21_181
*613 FILLER_0_21_193
*614 FILLER_0_21_205
*615 FILLER_0_21_217
*616 FILLER_0_21_223
*617 FILLER_0_21_225
*618 FILLER_0_21_237
*619 FILLER_0_21_249
*620 FILLER_0_21_261
*621 FILLER_0_21_27
*622 FILLER_0_21_273
*623 FILLER_0_21_279
*624 FILLER_0_21_281
*625 FILLER_0_21_293
*626 FILLER_0_21_3
*627 FILLER_0_21_305
*628 FILLER_0_21_317
*629 FILLER_0_21_329
*630 FILLER_0_21_335
*631 FILLER_0_21_337
*632 FILLER_0_21_349
*633 FILLER_0_21_39
*634 FILLER_0_21_51
*635 FILLER_0_21_55
*636 FILLER_0_21_57
*637 FILLER_0_21_69
*638 FILLER_0_21_81
*639 FILLER_0_21_93
*640 FILLER_0_22_109
*641 FILLER_0_22_121
*642 FILLER_0_22_133
*643 FILLER_0_22_139
*644 FILLER_0_22_141
*645 FILLER_0_22_15
*646 FILLER_0_22_153
*647 FILLER_0_22_165
*648 FILLER_0_22_177
*649 FILLER_0_22_189
*650 FILLER_0_22_195
*651 FILLER_0_22_197
*652 FILLER_0_22_209
*653 FILLER_0_22_221
*654 FILLER_0_22_233
*655 FILLER_0_22_245
*656 FILLER_0_22_251
*657 FILLER_0_22_253
*658 FILLER_0_22_265
*659 FILLER_0_22_27
*660 FILLER_0_22_277
*661 FILLER_0_22_289
*662 FILLER_0_22_29
*663 FILLER_0_22_3
*664 FILLER_0_22_301
*665 FILLER_0_22_307
*666 FILLER_0_22_309
*667 FILLER_0_22_321
*668 FILLER_0_22_333
*669 FILLER_0_22_345
*670 FILLER_0_22_41
*671 FILLER_0_22_53
*672 FILLER_0_22_65
*673 FILLER_0_22_77
*674 FILLER_0_22_83
*675 FILLER_0_22_85
*676 FILLER_0_22_97
*677 FILLER_0_23_105
*678 FILLER_0_23_111
*679 FILLER_0_23_113
*680 FILLER_0_23_125
*681 FILLER_0_23_137
*682 FILLER_0_23_149
*683 FILLER_0_23_15
*684 FILLER_0_23_161
*685 FILLER_0_23_167
*686 FILLER_0_23_169
*687 FILLER_0_23_181
*688 FILLER_0_23_193
*689 FILLER_0_23_205
*690 FILLER_0_23_217
*691 FILLER_0_23_223
*692 FILLER_0_23_225
*693 FILLER_0_23_237
*694 FILLER_0_23_249
*695 FILLER_0_23_261
*696 FILLER_0_23_27
*697 FILLER_0_23_273
*698 FILLER_0_23_279
*699 FILLER_0_23_281
*700 FILLER_0_23_293
*701 FILLER_0_23_3
*702 FILLER_0_23_305
*703 FILLER_0_23_317
*704 FILLER_0_23_329
*705 FILLER_0_23_335
*706 FILLER_0_23_337
*707 FILLER_0_23_349
*708 FILLER_0_23_39
*709 FILLER_0_23_51
*710 FILLER_0_23_55
*711 FILLER_0_23_57
*712 FILLER_0_23_69
*713 FILLER_0_23_81
*714 FILLER_0_23_93
*715 FILLER_0_24_109
*716 FILLER_0_24_121
*717 FILLER_0_24_133
*718 FILLER_0_24_139
*719 FILLER_0_24_141
*720 FILLER_0_24_15
*721 FILLER_0_24_153
*722 FILLER_0_24_165
*723 FILLER_0_24_177
*724 FILLER_0_24_189
*725 FILLER_0_24_195
*726 FILLER_0_24_197
*727 FILLER_0_24_209
*728 FILLER_0_24_221
*729 FILLER_0_24_233
*730 FILLER_0_24_245
*731 FILLER_0_24_251
*732 FILLER_0_24_253
*733 FILLER_0_24_265
*734 FILLER_0_24_27
*735 FILLER_0_24_277
*736 FILLER_0_24_289
*737 FILLER_0_24_29
*738 FILLER_0_24_3
*739 FILLER_0_24_301
*740 FILLER_0_24_307
*741 FILLER_0_24_309
*742 FILLER_0_24_321
*743 FILLER_0_24_333
*744 FILLER_0_24_345
*745 FILLER_0_24_41
*746 FILLER_0_24_53
*747 FILLER_0_24_65
*748 FILLER_0_24_77
*749 FILLER_0_24_83
*750 FILLER_0_24_85
*751 FILLER_0_24_97
*752 FILLER_0_25_105
*753 FILLER_0_25_111
*754 FILLER_0_25_113
*755 FILLER_0_25_125
*756 FILLER_0_25_137
*757 FILLER_0_25_149
*758 FILLER_0_25_15
*759 FILLER_0_25_161
*760 FILLER_0_25_167
*761 FILLER_0_25_169
*762 FILLER_0_25_181
*763 FILLER_0_25_193
*764 FILLER_0_25_205
*765 FILLER_0_25_217
*766 FILLER_0_25_223
*767 FILLER_0_25_225
*768 FILLER_0_25_237
*769 FILLER_0_25_249
*770 FILLER_0_25_261
*771 FILLER_0_25_27
*772 FILLER_0_25_273
*773 FILLER_0_25_279
*774 FILLER_0_25_281
*775 FILLER_0_25_293
*776 FILLER_0_25_3
*777 FILLER_0_25_305
*778 FILLER_0_25_317
*779 FILLER_0_25_329
*780 FILLER_0_25_335
*781 FILLER_0_25_337
*782 FILLER_0_25_349
*783 FILLER_0_25_39
*784 FILLER_0_25_51
*785 FILLER_0_25_55
*786 FILLER_0_25_57
*787 FILLER_0_25_69
*788 FILLER_0_25_81
*789 FILLER_0_25_93
*790 FILLER_0_26_109
*791 FILLER_0_26_121
*792 FILLER_0_26_133
*793 FILLER_0_26_139
*794 FILLER_0_26_141
*795 FILLER_0_26_15
*796 FILLER_0_26_153
*797 FILLER_0_26_165
*798 FILLER_0_26_177
*799 FILLER_0_26_189
*800 FILLER_0_26_195
*801 FILLER_0_26_197
*802 FILLER_0_26_209
*803 FILLER_0_26_221
*804 FILLER_0_26_233
*805 FILLER_0_26_245
*806 FILLER_0_26_251
*807 FILLER_0_26_253
*808 FILLER_0_26_265
*809 FILLER_0_26_27
*810 FILLER_0_26_277
*811 FILLER_0_26_289
*812 FILLER_0_26_29
*813 FILLER_0_26_3
*814 FILLER_0_26_301
*815 FILLER_0_26_307
*816 FILLER_0_26_309
*817 FILLER_0_26_321
*818 FILLER_0_26_333
*819 FILLER_0_26_345
*820 FILLER_0_26_41
*821 FILLER_0_26_53
*822 FILLER_0_26_65
*823 FILLER_0_26_77
*824 FILLER_0_26_83
*825 FILLER_0_26_85
*826 FILLER_0_26_97
*827 FILLER_0_27_105
*828 FILLER_0_27_111
*829 FILLER_0_27_113
*830 FILLER_0_27_125
*831 FILLER_0_27_137
*832 FILLER_0_27_149
*833 FILLER_0_27_15
*834 FILLER_0_27_161
*835 FILLER_0_27_167
*836 FILLER_0_27_169
*837 FILLER_0_27_181
*838 FILLER_0_27_193
*839 FILLER_0_27_205
*840 FILLER_0_27_217
*841 FILLER_0_27_223
*842 FILLER_0_27_225
*843 FILLER_0_27_237
*844 FILLER_0_27_249
*845 FILLER_0_27_261
*846 FILLER_0_27_27
*847 FILLER_0_27_273
*848 FILLER_0_27_279
*849 FILLER_0_27_281
*850 FILLER_0_27_293
*851 FILLER_0_27_3
*852 FILLER_0_27_305
*853 FILLER_0_27_317
*854 FILLER_0_27_329
*855 FILLER_0_27_335
*856 FILLER_0_27_337
*857 FILLER_0_27_349
*858 FILLER_0_27_39
*859 FILLER_0_27_51
*860 FILLER_0_27_55
*861 FILLER_0_27_57
*862 FILLER_0_27_69
*863 FILLER_0_27_81
*864 FILLER_0_27_93
*865 FILLER_0_28_109
*866 FILLER_0_28_121
*867 FILLER_0_28_133
*868 FILLER_0_28_139
*869 FILLER_0_28_141
*870 FILLER_0_28_15
*871 FILLER_0_28_153
*872 FILLER_0_28_165
*873 FILLER_0_28_177
*874 FILLER_0_28_189
*875 FILLER_0_28_195
*876 FILLER_0_28_197
*877 FILLER_0_28_209
*878 FILLER_0_28_221
*879 FILLER_0_28_233
*880 FILLER_0_28_245
*881 FILLER_0_28_251
*882 FILLER_0_28_253
*883 FILLER_0_28_265
*884 FILLER_0_28_27
*885 FILLER_0_28_277
*886 FILLER_0_28_289
*887 FILLER_0_28_29
*888 FILLER_0_28_3
*889 FILLER_0_28_301
*890 FILLER_0_28_307
*891 FILLER_0_28_309
*892 FILLER_0_28_321
*893 FILLER_0_28_333
*894 FILLER_0_28_345
*895 FILLER_0_28_41
*896 FILLER_0_28_53
*897 FILLER_0_28_65
*898 FILLER_0_28_77
*899 FILLER_0_28_83
*900 FILLER_0_28_85
*901 FILLER_0_28_97
*902 FILLER_0_29_105
*903 FILLER_0_29_111
*904 FILLER_0_29_113
*905 FILLER_0_29_125
*906 FILLER_0_29_137
*907 FILLER_0_29_149
*908 FILLER_0_29_15
*909 FILLER_0_29_161
*910 FILLER_0_29_167
*911 FILLER_0_29_169
*912 FILLER_0_29_181
*913 FILLER_0_29_193
*914 FILLER_0_29_205
*915 FILLER_0_29_217
*916 FILLER_0_29_223
*917 FILLER_0_29_225
*918 FILLER_0_29_237
*919 FILLER_0_29_249
*920 FILLER_0_29_261
*921 FILLER_0_29_27
*922 FILLER_0_29_273
*923 FILLER_0_29_279
*924 FILLER_0_29_281
*925 FILLER_0_29_293
*926 FILLER_0_29_3
*927 FILLER_0_29_305
*928 FILLER_0_29_317
*929 FILLER_0_29_329
*930 FILLER_0_29_335
*931 FILLER_0_29_337
*932 FILLER_0_29_349
*933 FILLER_0_29_39
*934 FILLER_0_29_51
*935 FILLER_0_29_55
*936 FILLER_0_29_57
*937 FILLER_0_29_69
*938 FILLER_0_29_81
*939 FILLER_0_29_93
*940 FILLER_0_2_109
*941 FILLER_0_2_121
*942 FILLER_0_2_133
*943 FILLER_0_2_139
*944 FILLER_0_2_141
*945 FILLER_0_2_15
*946 FILLER_0_2_153
*947 FILLER_0_2_165
*948 FILLER_0_2_177
*949 FILLER_0_2_189
*950 FILLER_0_2_195
*951 FILLER_0_2_197
*952 FILLER_0_2_209
*953 FILLER_0_2_221
*954 FILLER_0_2_233
*955 FILLER_0_2_245
*956 FILLER_0_2_251
*957 FILLER_0_2_253
*958 FILLER_0_2_265
*959 FILLER_0_2_27
*960 FILLER_0_2_277
*961 FILLER_0_2_289
*962 FILLER_0_2_29
*963 FILLER_0_2_3
*964 FILLER_0_2_301
*965 FILLER_0_2_307
*966 FILLER_0_2_309
*967 FILLER_0_2_321
*968 FILLER_0_2_333
*969 FILLER_0_2_345
*970 FILLER_0_2_41
*971 FILLER_0_2_53
*972 FILLER_0_2_65
*973 FILLER_0_2_77
*974 FILLER_0_2_83
*975 FILLER_0_2_85
*976 FILLER_0_2_97
*977 FILLER_0_30_109
*978 FILLER_0_30_121
*979 FILLER_0_30_133
*980 FILLER_0_30_139
*981 FILLER_0_30_141
*982 FILLER_0_30_15
*983 FILLER_0_30_153
*984 FILLER_0_30_165
*985 FILLER_0_30_177
*986 FILLER_0_30_189
*987 FILLER_0_30_195
*988 FILLER_0_30_197
*989 FILLER_0_30_209
*990 FILLER_0_30_221
*991 FILLER_0_30_233
*992 FILLER_0_30_245
*993 FILLER_0_30_251
*994 FILLER_0_30_253
*995 FILLER_0_30_265
*996 FILLER_0_30_27
*997 FILLER_0_30_277
*998 FILLER_0_30_289
*999 FILLER_0_30_29
*1000 FILLER_0_30_3
*1001 FILLER_0_30_301
*1002 FILLER_0_30_307
*1003 FILLER_0_30_309
*1004 FILLER_0_30_321
*1005 FILLER_0_30_333
*1006 FILLER_0_30_345
*1007 FILLER_0_30_41
*1008 FILLER_0_30_53
*1009 FILLER_0_30_65
*1010 FILLER_0_30_77
*1011 FILLER_0_30_83
*1012 FILLER_0_30_85
*1013 FILLER_0_30_97
*1014 FILLER_0_31_105
*1015 FILLER_0_31_111
*1016 FILLER_0_31_113
*1017 FILLER_0_31_125
*1018 FILLER_0_31_137
*1019 FILLER_0_31_149
*1020 FILLER_0_31_15
*1021 FILLER_0_31_161
*1022 FILLER_0_31_167
*1023 FILLER_0_31_169
*1024 FILLER_0_31_181
*1025 FILLER_0_31_193
*1026 FILLER_0_31_205
*1027 FILLER_0_31_217
*1028 FILLER_0_31_223
*1029 FILLER_0_31_225
*1030 FILLER_0_31_237
*1031 FILLER_0_31_249
*1032 FILLER_0_31_261
*1033 FILLER_0_31_27
*1034 FILLER_0_31_273
*1035 FILLER_0_31_279
*1036 FILLER_0_31_281
*1037 FILLER_0_31_293
*1038 FILLER_0_31_3
*1039 FILLER_0_31_305
*1040 FILLER_0_31_317
*1041 FILLER_0_31_329
*1042 FILLER_0_31_335
*1043 FILLER_0_31_337
*1044 FILLER_0_31_349
*1045 FILLER_0_31_39
*1046 FILLER_0_31_51
*1047 FILLER_0_31_55
*1048 FILLER_0_31_57
*1049 FILLER_0_31_69
*1050 FILLER_0_31_81
*1051 FILLER_0_31_93
*1052 FILLER_0_32_109
*1053 FILLER_0_32_121
*1054 FILLER_0_32_133
*1055 FILLER_0_32_139
*1056 FILLER_0_32_141
*1057 FILLER_0_32_15
*1058 FILLER_0_32_153
*1059 FILLER_0_32_165
*1060 FILLER_0_32_177
*1061 FILLER_0_32_184
*1062 FILLER_0_32_197
*1063 FILLER_0_32_209
*1064 FILLER_0_32_221
*1065 FILLER_0_32_232
*1066 FILLER_0_32_244
*1067 FILLER_0_32_253
*1068 FILLER_0_32_265
*1069 FILLER_0_32_27
*1070 FILLER_0_32_277
*1071 FILLER_0_32_289
*1072 FILLER_0_32_29
*1073 FILLER_0_32_3
*1074 FILLER_0_32_301
*1075 FILLER_0_32_307
*1076 FILLER_0_32_309
*1077 FILLER_0_32_321
*1078 FILLER_0_32_333
*1079 FILLER_0_32_345
*1080 FILLER_0_32_41
*1081 FILLER_0_32_53
*1082 FILLER_0_32_65
*1083 FILLER_0_32_77
*1084 FILLER_0_32_83
*1085 FILLER_0_32_85
*1086 FILLER_0_32_97
*1087 FILLER_0_33_105
*1088 FILLER_0_33_111
*1089 FILLER_0_33_113
*1090 FILLER_0_33_125
*1091 FILLER_0_33_137
*1092 FILLER_0_33_149
*1093 FILLER_0_33_15
*1094 FILLER_0_33_161
*1095 FILLER_0_33_167
*1096 FILLER_0_33_169
*1097 FILLER_0_33_191
*1098 FILLER_0_33_209
*1099 FILLER_0_33_220
*1100 FILLER_0_33_252
*1101 FILLER_0_33_264
*1102 FILLER_0_33_27
*1103 FILLER_0_33_276
*1104 FILLER_0_33_281
*1105 FILLER_0_33_290
*1106 FILLER_0_33_3
*1107 FILLER_0_33_302
*1108 FILLER_0_33_314
*1109 FILLER_0_33_326
*1110 FILLER_0_33_334
*1111 FILLER_0_33_337
*1112 FILLER_0_33_349
*1113 FILLER_0_33_39
*1114 FILLER_0_33_51
*1115 FILLER_0_33_55
*1116 FILLER_0_33_57
*1117 FILLER_0_33_69
*1118 FILLER_0_33_81
*1119 FILLER_0_33_93
*1120 FILLER_0_34_109
*1121 FILLER_0_34_121
*1122 FILLER_0_34_133
*1123 FILLER_0_34_139
*1124 FILLER_0_34_141
*1125 FILLER_0_34_15
*1126 FILLER_0_34_153
*1127 FILLER_0_34_165
*1128 FILLER_0_34_191
*1129 FILLER_0_34_195
*1130 FILLER_0_34_218
*1131 FILLER_0_34_226
*1132 FILLER_0_34_251
*1133 FILLER_0_34_253
*1134 FILLER_0_34_263
*1135 FILLER_0_34_27
*1136 FILLER_0_34_275
*1137 FILLER_0_34_281
*1138 FILLER_0_34_29
*1139 FILLER_0_34_298
*1140 FILLER_0_34_3
*1141 FILLER_0_34_305
*1142 FILLER_0_34_317
*1143 FILLER_0_34_329
*1144 FILLER_0_34_341
*1145 FILLER_0_34_349
*1146 FILLER_0_34_41
*1147 FILLER_0_34_53
*1148 FILLER_0_34_65
*1149 FILLER_0_34_77
*1150 FILLER_0_34_83
*1151 FILLER_0_34_85
*1152 FILLER_0_34_97
*1153 FILLER_0_35_105
*1154 FILLER_0_35_111
*1155 FILLER_0_35_113
*1156 FILLER_0_35_125
*1157 FILLER_0_35_137
*1158 FILLER_0_35_149
*1159 FILLER_0_35_15
*1160 FILLER_0_35_157
*1161 FILLER_0_35_161
*1162 FILLER_0_35_167
*1163 FILLER_0_35_169
*1164 FILLER_0_35_173
*1165 FILLER_0_35_177
*1166 FILLER_0_35_189
*1167 FILLER_0_35_197
*1168 FILLER_0_35_212
*1169 FILLER_0_35_253
*1170 FILLER_0_35_265
*1171 FILLER_0_35_27
*1172 FILLER_0_35_277
*1173 FILLER_0_35_297
*1174 FILLER_0_35_3
*1175 FILLER_0_35_309
*1176 FILLER_0_35_321
*1177 FILLER_0_35_333
*1178 FILLER_0_35_337
*1179 FILLER_0_35_349
*1180 FILLER_0_35_39
*1181 FILLER_0_35_51
*1182 FILLER_0_35_55
*1183 FILLER_0_35_57
*1184 FILLER_0_35_69
*1185 FILLER_0_35_81
*1186 FILLER_0_35_93
*1187 FILLER_0_36_109
*1188 FILLER_0_36_121
*1189 FILLER_0_36_133
*1190 FILLER_0_36_139
*1191 FILLER_0_36_141
*1192 FILLER_0_36_149
*1193 FILLER_0_36_15
*1194 FILLER_0_36_188
*1195 FILLER_0_36_197
*1196 FILLER_0_36_206
*1197 FILLER_0_36_214
*1198 FILLER_0_36_228
*1199 FILLER_0_36_232
*1200 FILLER_0_36_251
*1201 FILLER_0_36_253
*1202 FILLER_0_36_27
*1203 FILLER_0_36_272
*1204 FILLER_0_36_280
*1205 FILLER_0_36_29
*1206 FILLER_0_36_298
*1207 FILLER_0_36_3
*1208 FILLER_0_36_304
*1209 FILLER_0_36_325
*1210 FILLER_0_36_337
*1211 FILLER_0_36_349
*1212 FILLER_0_36_41
*1213 FILLER_0_36_53
*1214 FILLER_0_36_65
*1215 FILLER_0_36_77
*1216 FILLER_0_36_83
*1217 FILLER_0_36_85
*1218 FILLER_0_36_97
*1219 FILLER_0_37_105
*1220 FILLER_0_37_111
*1221 FILLER_0_37_113
*1222 FILLER_0_37_125
*1223 FILLER_0_37_137
*1224 FILLER_0_37_149
*1225 FILLER_0_37_15
*1226 FILLER_0_37_158
*1227 FILLER_0_37_162
*1228 FILLER_0_37_169
*1229 FILLER_0_37_177
*1230 FILLER_0_37_197
*1231 FILLER_0_37_208
*1232 FILLER_0_37_214
*1233 FILLER_0_37_218
*1234 FILLER_0_37_225
*1235 FILLER_0_37_27
*1236 FILLER_0_37_279
*1237 FILLER_0_37_293
*1238 FILLER_0_37_3
*1239 FILLER_0_37_313
*1240 FILLER_0_37_325
*1241 FILLER_0_37_333
*1242 FILLER_0_37_337
*1243 FILLER_0_37_349
*1244 FILLER_0_37_39
*1245 FILLER_0_37_51
*1246 FILLER_0_37_55
*1247 FILLER_0_37_57
*1248 FILLER_0_37_69
*1249 FILLER_0_37_81
*1250 FILLER_0_37_93
*1251 FILLER_0_38_104
*1252 FILLER_0_38_110
*1253 FILLER_0_38_116
*1254 FILLER_0_38_122
*1255 FILLER_0_38_128
*1256 FILLER_0_38_134
*1257 FILLER_0_38_141
*1258 FILLER_0_38_15
*1259 FILLER_0_38_169
*1260 FILLER_0_38_181
*1261 FILLER_0_38_188
*1262 FILLER_0_38_194
*1263 FILLER_0_38_222
*1264 FILLER_0_38_27
*1265 FILLER_0_38_29
*1266 FILLER_0_38_3
*1267 FILLER_0_38_303
*1268 FILLER_0_38_307
*1269 FILLER_0_38_309
*1270 FILLER_0_38_321
*1271 FILLER_0_38_333
*1272 FILLER_0_38_337
*1273 FILLER_0_38_349
*1274 FILLER_0_38_41
*1275 FILLER_0_38_53
*1276 FILLER_0_38_57
*1277 FILLER_0_38_68
*1278 FILLER_0_38_74
*1279 FILLER_0_38_80
*1280 FILLER_0_38_88
*1281 FILLER_0_38_92
*1282 FILLER_0_38_98
*1283 FILLER_0_3_105
*1284 FILLER_0_3_111
*1285 FILLER_0_3_113
*1286 FILLER_0_3_125
*1287 FILLER_0_3_137
*1288 FILLER_0_3_149
*1289 FILLER_0_3_15
*1290 FILLER_0_3_161
*1291 FILLER_0_3_167
*1292 FILLER_0_3_169
*1293 FILLER_0_3_181
*1294 FILLER_0_3_193
*1295 FILLER_0_3_205
*1296 FILLER_0_3_217
*1297 FILLER_0_3_223
*1298 FILLER_0_3_225
*1299 FILLER_0_3_237
*1300 FILLER_0_3_249
*1301 FILLER_0_3_261
*1302 FILLER_0_3_27
*1303 FILLER_0_3_273
*1304 FILLER_0_3_279
*1305 FILLER_0_3_281
*1306 FILLER_0_3_293
*1307 FILLER_0_3_3
*1308 FILLER_0_3_305
*1309 FILLER_0_3_317
*1310 FILLER_0_3_329
*1311 FILLER_0_3_335
*1312 FILLER_0_3_337
*1313 FILLER_0_3_349
*1314 FILLER_0_3_39
*1315 FILLER_0_3_51
*1316 FILLER_0_3_55
*1317 FILLER_0_3_57
*1318 FILLER_0_3_69
*1319 FILLER_0_3_81
*1320 FILLER_0_3_93
*1321 FILLER_0_4_109
*1322 FILLER_0_4_121
*1323 FILLER_0_4_133
*1324 FILLER_0_4_139
*1325 FILLER_0_4_141
*1326 FILLER_0_4_15
*1327 FILLER_0_4_153
*1328 FILLER_0_4_165
*1329 FILLER_0_4_177
*1330 FILLER_0_4_189
*1331 FILLER_0_4_195
*1332 FILLER_0_4_197
*1333 FILLER_0_4_209
*1334 FILLER_0_4_221
*1335 FILLER_0_4_233
*1336 FILLER_0_4_245
*1337 FILLER_0_4_251
*1338 FILLER_0_4_253
*1339 FILLER_0_4_265
*1340 FILLER_0_4_27
*1341 FILLER_0_4_277
*1342 FILLER_0_4_289
*1343 FILLER_0_4_29
*1344 FILLER_0_4_3
*1345 FILLER_0_4_301
*1346 FILLER_0_4_307
*1347 FILLER_0_4_309
*1348 FILLER_0_4_321
*1349 FILLER_0_4_333
*1350 FILLER_0_4_345
*1351 FILLER_0_4_41
*1352 FILLER_0_4_53
*1353 FILLER_0_4_65
*1354 FILLER_0_4_77
*1355 FILLER_0_4_83
*1356 FILLER_0_4_85
*1357 FILLER_0_4_97
*1358 FILLER_0_5_105
*1359 FILLER_0_5_111
*1360 FILLER_0_5_113
*1361 FILLER_0_5_125
*1362 FILLER_0_5_137
*1363 FILLER_0_5_149
*1364 FILLER_0_5_15
*1365 FILLER_0_5_161
*1366 FILLER_0_5_167
*1367 FILLER_0_5_169
*1368 FILLER_0_5_181
*1369 FILLER_0_5_193
*1370 FILLER_0_5_205
*1371 FILLER_0_5_217
*1372 FILLER_0_5_223
*1373 FILLER_0_5_225
*1374 FILLER_0_5_237
*1375 FILLER_0_5_249
*1376 FILLER_0_5_261
*1377 FILLER_0_5_27
*1378 FILLER_0_5_273
*1379 FILLER_0_5_279
*1380 FILLER_0_5_281
*1381 FILLER_0_5_293
*1382 FILLER_0_5_3
*1383 FILLER_0_5_305
*1384 FILLER_0_5_317
*1385 FILLER_0_5_329
*1386 FILLER_0_5_335
*1387 FILLER_0_5_337
*1388 FILLER_0_5_349
*1389 FILLER_0_5_39
*1390 FILLER_0_5_51
*1391 FILLER_0_5_55
*1392 FILLER_0_5_57
*1393 FILLER_0_5_69
*1394 FILLER_0_5_81
*1395 FILLER_0_5_93
*1396 FILLER_0_6_109
*1397 FILLER_0_6_121
*1398 FILLER_0_6_133
*1399 FILLER_0_6_139
*1400 FILLER_0_6_141
*1401 FILLER_0_6_15
*1402 FILLER_0_6_153
*1403 FILLER_0_6_165
*1404 FILLER_0_6_177
*1405 FILLER_0_6_189
*1406 FILLER_0_6_195
*1407 FILLER_0_6_197
*1408 FILLER_0_6_209
*1409 FILLER_0_6_221
*1410 FILLER_0_6_233
*1411 FILLER_0_6_245
*1412 FILLER_0_6_251
*1413 FILLER_0_6_253
*1414 FILLER_0_6_265
*1415 FILLER_0_6_27
*1416 FILLER_0_6_277
*1417 FILLER_0_6_289
*1418 FILLER_0_6_29
*1419 FILLER_0_6_3
*1420 FILLER_0_6_301
*1421 FILLER_0_6_307
*1422 FILLER_0_6_309
*1423 FILLER_0_6_321
*1424 FILLER_0_6_333
*1425 FILLER_0_6_345
*1426 FILLER_0_6_41
*1427 FILLER_0_6_53
*1428 FILLER_0_6_65
*1429 FILLER_0_6_77
*1430 FILLER_0_6_83
*1431 FILLER_0_6_85
*1432 FILLER_0_6_97
*1433 FILLER_0_7_105
*1434 FILLER_0_7_111
*1435 FILLER_0_7_113
*1436 FILLER_0_7_125
*1437 FILLER_0_7_137
*1438 FILLER_0_7_149
*1439 FILLER_0_7_15
*1440 FILLER_0_7_161
*1441 FILLER_0_7_167
*1442 FILLER_0_7_169
*1443 FILLER_0_7_181
*1444 FILLER_0_7_193
*1445 FILLER_0_7_205
*1446 FILLER_0_7_217
*1447 FILLER_0_7_223
*1448 FILLER_0_7_225
*1449 FILLER_0_7_237
*1450 FILLER_0_7_249
*1451 FILLER_0_7_261
*1452 FILLER_0_7_27
*1453 FILLER_0_7_273
*1454 FILLER_0_7_279
*1455 FILLER_0_7_281
*1456 FILLER_0_7_293
*1457 FILLER_0_7_3
*1458 FILLER_0_7_305
*1459 FILLER_0_7_317
*1460 FILLER_0_7_329
*1461 FILLER_0_7_335
*1462 FILLER_0_7_337
*1463 FILLER_0_7_349
*1464 FILLER_0_7_39
*1465 FILLER_0_7_51
*1466 FILLER_0_7_55
*1467 FILLER_0_7_57
*1468 FILLER_0_7_69
*1469 FILLER_0_7_81
*1470 FILLER_0_7_93
*1471 FILLER_0_8_109
*1472 FILLER_0_8_121
*1473 FILLER_0_8_133
*1474 FILLER_0_8_139
*1475 FILLER_0_8_141