*SPEF "ieee 1481-1999"
*DESIGN "tt_um_loopback"
*DATE "11:11:11 Fri 11 11, 1111"
*VENDOR "OpenRCX"
*PROGRAM "Parallel Extraction"
*VERSION "1.0"
*DESIGN_FLOW "NAME_SCOPE LOCAL" "PIN_CAP NONE"
*DIVIDER /
*DELIMITER :
*BUS_DELIMITER []
*T_UNIT 1 NS
*C_UNIT 1 PF
*R_UNIT 1 OHM
*L_UNIT 1 HENRY

*NAME_MAP
*3 clk
*4 ena
*5 rst_n
*6 ui_in[0]
*7 ui_in[1]
*8 ui_in[2]
*9 ui_in[3]
*10 ui_in[4]
*11 ui_in[5]
*12 ui_in[6]
*13 ui_in[7]
*14 uio_in[0]
*15 uio_in[1]
*16 uio_in[2]
*17 uio_in[3]
*18 uio_in[4]
*19 uio_in[5]
*20 uio_in[6]
*21 uio_in[7]
*22 net13
*23 net14
*24 net15
*25 net16
*26 net1
*27 net2
*28 net3
*29 net4
*30 net5
*31 net6
*32 net7
*33 net8
*34 net9
*35 net10
*36 net11
*37 net12
*38 uo_out[0]
*39 uo_out[1]
*40 uo_out[2]
*41 uo_out[3]
*42 uo_out[4]
*43 uo_out[5]
*44 uo_out[6]
*45 uo_out[7]
*46 _00_
*47 FILLER_0_0_109
*48 FILLER_0_0_113
*49 FILLER_0_0_125
*50 FILLER_0_0_137
*51 FILLER_0_0_141
*52 FILLER_0_0_15
*53 FILLER_0_0_153
*54 FILLER_0_0_165
*55 FILLER_0_0_169
*56 FILLER_0_0_181
*57 FILLER_0_0_193
*58 FILLER_0_0_197
*59 FILLER_0_0_209
*60 FILLER_0_0_221
*61 FILLER_0_0_225
*62 FILLER_0_0_237
*63 FILLER_0_0_249
*64 FILLER_0_0_253
*65 FILLER_0_0_265
*66 FILLER_0_0_27
*67 FILLER_0_0_277
*68 FILLER_0_0_281
*69 FILLER_0_0_29
*70 FILLER_0_0_293
*71 FILLER_0_0_3
*72 FILLER_0_0_305
*73 FILLER_0_0_309
*74 FILLER_0_0_321
*75 FILLER_0_0_333
*76 FILLER_0_0_337
*77 FILLER_0_0_349
*78 FILLER_0_0_41
*79 FILLER_0_0_53
*80 FILLER_0_0_57
*81 FILLER_0_0_69
*82 FILLER_0_0_81
*83 FILLER_0_0_85
*84 FILLER_0_0_97
*85 FILLER_0_10_109
*86 FILLER_0_10_121
*87 FILLER_0_10_133
*88 FILLER_0_10_139
*89 FILLER_0_10_141
*90 FILLER_0_10_15
*91 FILLER_0_10_153
*92 FILLER_0_10_165
*93 FILLER_0_10_177
*94 FILLER_0_10_189
*95 FILLER_0_10_195
*96 FILLER_0_10_197
*97 FILLER_0_10_209
*98 FILLER_0_10_221
*99 FILLER_0_10_233
*100 FILLER_0_10_245
*101 FILLER_0_10_251
*102 FILLER_0_10_253
*103 FILLER_0_10_265
*104 FILLER_0_10_27
*105 FILLER_0_10_277
*106 FILLER_0_10_289
*107 FILLER_0_10_29
*108 FILLER_0_10_3
*109 FILLER_0_10_301
*110 FILLER_0_10_307
*111 FILLER_0_10_309
*112 FILLER_0_10_321
*113 FILLER_0_10_333
*114 FILLER_0_10_345
*115 FILLER_0_10_41
*116 FILLER_0_10_53
*117 FILLER_0_10_65
*118 FILLER_0_10_77
*119 FILLER_0_10_83
*120 FILLER_0_10_85
*121 FILLER_0_10_97
*122 FILLER_0_11_105
*123 FILLER_0_11_111
*124 FILLER_0_11_113
*125 FILLER_0_11_125
*126 FILLER_0_11_137
*127 FILLER_0_11_149
*128 FILLER_0_11_15
*129 FILLER_0_11_161
*130 FILLER_0_11_167
*131 FILLER_0_11_169
*132 FILLER_0_11_181
*133 FILLER_0_11_193
*134 FILLER_0_11_205
*135 FILLER_0_11_217
*136 FILLER_0_11_223
*137 FILLER_0_11_225
*138 FILLER_0_11_237
*139 FILLER_0_11_249
*140 FILLER_0_11_261
*141 FILLER_0_11_27
*142 FILLER_0_11_273
*143 FILLER_0_11_279
*144 FILLER_0_11_281
*145 FILLER_0_11_293
*146 FILLER_0_11_3
*147 FILLER_0_11_305
*148 FILLER_0_11_317
*149 FILLER_0_11_329
*150 FILLER_0_11_335
*151 FILLER_0_11_337
*152 FILLER_0_11_349
*153 FILLER_0_11_39
*154 FILLER_0_11_51
*155 FILLER_0_11_55
*156 FILLER_0_11_57
*157 FILLER_0_11_69
*158 FILLER_0_11_81
*159 FILLER_0_11_93
*160 FILLER_0_12_109
*161 FILLER_0_12_121
*162 FILLER_0_12_133
*163 FILLER_0_12_139
*164 FILLER_0_12_141
*165 FILLER_0_12_15
*166 FILLER_0_12_153
*167 FILLER_0_12_165
*168 FILLER_0_12_177
*169 FILLER_0_12_189
*170 FILLER_0_12_195
*171 FILLER_0_12_197
*172 FILLER_0_12_209
*173 FILLER_0_12_221
*174 FILLER_0_12_233
*175 FILLER_0_12_245
*176 FILLER_0_12_251
*177 FILLER_0_12_253
*178 FILLER_0_12_265
*179 FILLER_0_12_27
*180 FILLER_0_12_277
*181 FILLER_0_12_289
*182 FILLER_0_12_29
*183 FILLER_0_12_3
*184 FILLER_0_12_301
*185 FILLER_0_12_307
*186 FILLER_0_12_309
*187 FILLER_0_12_321
*188 FILLER_0_12_333
*189 FILLER_0_12_345
*190 FILLER_0_12_41
*191 FILLER_0_12_53
*192 FILLER_0_12_65
*193 FILLER_0_12_77
*194 FILLER_0_12_83
*195 FILLER_0_12_85
*196 FILLER_0_12_97
*197 FILLER_0_13_105
*198 FILLER_0_13_111
*199 FILLER_0_13_113
*200 FILLER_0_13_125
*201 FILLER_0_13_137
*202 FILLER_0_13_149
*203 FILLER_0_13_15
*204 FILLER_0_13_161
*205 FILLER_0_13_167
*206 FILLER_0_13_169
*207 FILLER_0_13_181
*208 FILLER_0_13_193
*209 FILLER_0_13_205
*210 FILLER_0_13_217
*211 FILLER_0_13_223
*212 FILLER_0_13_225
*213 FILLER_0_13_237
*214 FILLER_0_13_249
*215 FILLER_0_13_261
*216 FILLER_0_13_27
*217 FILLER_0_13_273
*218 FILLER_0_13_279
*219 FILLER_0_13_281
*220 FILLER_0_13_293
*221 FILLER_0_13_3
*222 FILLER_0_13_305
*223 FILLER_0_13_317
*224 FILLER_0_13_329
*225 FILLER_0_13_335
*226 FILLER_0_13_337
*227 FILLER_0_13_349
*228 FILLER_0_13_39
*229 FILLER_0_13_51
*230 FILLER_0_13_55
*231 FILLER_0_13_57
*232 FILLER_0_13_69
*233 FILLER_0_13_81
*234 FILLER_0_13_93
*235 FILLER_0_14_109
*236 FILLER_0_14_121
*237 FILLER_0_14_133
*238 FILLER_0_14_139
*239 FILLER_0_14_141
*240 FILLER_0_14_15
*241 FILLER_0_14_153
*242 FILLER_0_14_165
*243 FILLER_0_14_177
*244 FILLER_0_14_189
*245 FILLER_0_14_195
*246 FILLER_0_14_197
*247 FILLER_0_14_209
*248 FILLER_0_14_221
*249 FILLER_0_14_233
*250 FILLER_0_14_245
*251 FILLER_0_14_251
*252 FILLER_0_14_253
*253 FILLER_0_14_265
*254 FILLER_0_14_27
*255 FILLER_0_14_277
*256 FILLER_0_14_289
*257 FILLER_0_14_29
*258 FILLER_0_14_3
*259 FILLER_0_14_301
*260 FILLER_0_14_307
*261 FILLER_0_14_309
*262 FILLER_0_14_321
*263 FILLER_0_14_333
*264 FILLER_0_14_345
*265 FILLER_0_14_41
*266 FILLER_0_14_53
*267 FILLER_0_14_65
*268 FILLER_0_14_77
*269 FILLER_0_14_83
*270 FILLER_0_14_85
*271 FILLER_0_14_97
*272 FILLER_0_15_105
*273 FILLER_0_15_111
*274 FILLER_0_15_113
*275 FILLER_0_15_125
*276 FILLER_0_15_137
*277 FILLER_0_15_149
*278 FILLER_0_15_15
*279 FILLER_0_15_161
*280 FILLER_0_15_167
*281 FILLER_0_15_169
*282 FILLER_0_15_181
*283 FILLER_0_15_193
*284 FILLER_0_15_205
*285 FILLER_0_15_217
*286 FILLER_0_15_223
*287 FILLER_0_15_225
*288 FILLER_0_15_237
*289 FILLER_0_15_249
*290 FILLER_0_15_261
*291 FILLER_0_15_27
*292 FILLER_0_15_273
*293 FILLER_0_15_279
*294 FILLER_0_15_281
*295 FILLER_0_15_293
*296 FILLER_0_15_3
*297 FILLER_0_15_305
*298 FILLER_0_15_317
*299 FILLER_0_15_329
*300 FILLER_0_15_335
*301 FILLER_0_15_337
*302 FILLER_0_15_349
*303 FILLER_0_15_39
*304 FILLER_0_15_51
*305 FILLER_0_15_55
*306 FILLER_0_15_57
*307 FILLER_0_15_69
*308 FILLER_0_15_81
*309 FILLER_0_15_93
*310 FILLER_0_16_109
*311 FILLER_0_16_121
*312 FILLER_0_16_133
*313 FILLER_0_16_139
*314 FILLER_0_16_141
*315 FILLER_0_16_15
*316 FILLER_0_16_153
*317 FILLER_0_16_165
*318 FILLER_0_16_177
*319 FILLER_0_16_189
*320 FILLER_0_16_195
*321 FILLER_0_16_197
*322 FILLER_0_16_209
*323 FILLER_0_16_221
*324 FILLER_0_16_233
*325 FILLER_0_16_245
*326 FILLER_0_16_251
*327 FILLER_0_16_253
*328 FILLER_0_16_265
*329 FILLER_0_16_27
*330 FILLER_0_16_277
*331 FILLER_0_16_289
*332 FILLER_0_16_29
*333 FILLER_0_16_3
*334 FILLER_0_16_301
*335 FILLER_0_16_307
*336 FILLER_0_16_309
*337 FILLER_0_16_321
*338 FILLER_0_16_333
*339 FILLER_0_16_345
*340 FILLER_0_16_41
*341 FILLER_0_16_53
*342 FILLER_0_16_65
*343 FILLER_0_16_77
*344 FILLER_0_16_83
*345 FILLER_0_16_85
*346 FILLER_0_16_97
*347 FILLER_0_17_105
*348 FILLER_0_17_111
*349 FILLER_0_17_113
*350 FILLER_0_17_125
*351 FILLER_0_17_137
*352 FILLER_0_17_149
*353 FILLER_0_17_15
*354 FILLER_0_17_161
*355 FILLER_0_17_167
*356 FILLER_0_17_169
*357 FILLER_0_17_181
*358 FILLER_0_17_193
*359 FILLER_0_17_205
*360 FILLER_0_17_217
*361 FILLER_0_17_223
*362 FILLER_0_17_225
*363 FILLER_0_17_237
*364 FILLER_0_17_249
*365 FILLER_0_17_261
*366 FILLER_0_17_27
*367 FILLER_0_17_273
*368 FILLER_0_17_279
*369 FILLER_0_17_281
*370 FILLER_0_17_293
*371 FILLER_0_17_3
*372 FILLER_0_17_305
*373 FILLER_0_17_317
*374 FILLER_0_17_329
*375 FILLER_0_17_335
*376 FILLER_0_17_337
*377 FILLER_0_17_349
*378 FILLER_0_17_39
*379 FILLER_0_17_51
*380 FILLER_0_17_55
*381 FILLER_0_17_57
*382 FILLER_0_17_69
*383 FILLER_0_17_81
*384 FILLER_0_17_93
*385 FILLER_0_18_109
*386 FILLER_0_18_121
*387 FILLER_0_18_133
*388 FILLER_0_18_139
*389 FILLER_0_18_141
*390 FILLER_0_18_15
*391 FILLER_0_18_153
*392 FILLER_0_18_165
*393 FILLER_0_18_177
*394 FILLER_0_18_189
*395 FILLER_0_18_195
*396 FILLER_0_18_197
*397 FILLER_0_18_209
*398 FILLER_0_18_221
*399 FILLER_0_18_233
*400 FILLER_0_18_245
*401 FILLER_0_18_251
*402 FILLER_0_18_253
*403 FILLER_0_18_265
*404 FILLER_0_18_27
*405 FILLER_0_18_277
*406 FILLER_0_18_289
*407 FILLER_0_18_29
*408 FILLER_0_18_3
*409 FILLER_0_18_301
*410 FILLER_0_18_307
*411 FILLER_0_18_309
*412 FILLER_0_18_321
*413 FILLER_0_18_333
*414 FILLER_0_18_345
*415 FILLER_0_18_41
*416 FILLER_0_18_53
*417 FILLER_0_18_65
*418 FILLER_0_18_77
*419 FILLER_0_18_83
*420 FILLER_0_18_85
*421 FILLER_0_18_97
*422 FILLER_0_19_105
*423 FILLER_0_19_111
*424 FILLER_0_19_113
*425 FILLER_0_19_125
*426 FILLER_0_19_137
*427 FILLER_0_19_149
*428 FILLER_0_19_15
*429 FILLER_0_19_161
*430 FILLER_0_19_167
*431 FILLER_0_19_169
*432 FILLER_0_19_181
*433 FILLER_0_19_193
*434 FILLER_0_19_205
*435 FILLER_0_19_217
*436 FILLER_0_19_223
*437 FILLER_0_19_225
*438 FILLER_0_19_237
*439 FILLER_0_19_249
*440 FILLER_0_19_261
*441 FILLER_0_19_27
*442 FILLER_0_19_273
*443 FILLER_0_19_279
*444 FILLER_0_19_281
*445 FILLER_0_19_293
*446 FILLER_0_19_3
*447 FILLER_0_19_305
*448 FILLER_0_19_317
*449 FILLER_0_19_329
*450 FILLER_0_19_335
*451 FILLER_0_19_337
*452 FILLER_0_19_349
*453 FILLER_0_19_39
*454 FILLER_0_19_51
*455 FILLER_0_19_55
*456 FILLER_0_19_57
*457 FILLER_0_19_69
*458 FILLER_0_19_81
*459 FILLER_0_19_93
*460 FILLER_0_1_105
*461 FILLER_0_1_111
*462 FILLER_0_1_113
*463 FILLER_0_1_125
*464 FILLER_0_1_137
*465 FILLER_0_1_149
*466 FILLER_0_1_15
*467 FILLER_0_1_161
*468 FILLER_0_1_167
*469 FILLER_0_1_169
*470 FILLER_0_1_181
*471 FILLER_0_1_193
*472 FILLER_0_1_205
*473 FILLER_0_1_217
*474 FILLER_0_1_223
*475 FILLER_0_1_225
*476 FILLER_0_1_237
*477 FILLER_0_1_249
*478 FILLER_0_1_261
*479 FILLER_0_1_27
*480 FILLER_0_1_273
*481 FILLER_0_1_279
*482 FILLER_0_1_281
*483 FILLER_0_1_293
*484 FILLER_0_1_3
*485 FILLER_0_1_305
*486 FILLER_0_1_317
*487 FILLER_0_1_329
*488 FILLER_0_1_335
*489 FILLER_0_1_337
*490 FILLER_0_1_349
*491 FILLER_0_1_39
*492 FILLER_0_1_51
*493 FILLER_0_1_55
*494 FILLER_0_1_57
*495 FILLER_0_1_69
*496 FILLER_0_1_81
*497 FILLER_0_1_93
*498 FILLER_0_20_109
*499 FILLER_0_20_121
*500 FILLER_0_20_133
*501 FILLER_0_20_139
*502 FILLER_0_20_141
*503 FILLER_0_20_15
*504 FILLER_0_20_153
*505 FILLER_0_20_165
*506 FILLER_0_20_177
*507 FILLER_0_20_189
*508 FILLER_0_20_195
*509 FILLER_0_20_197
*510 FILLER_0_20_209
*511 FILLER_0_20_221
*512 FILLER_0_20_233
*513 FILLER_0_20_245
*514 FILLER_0_20_251
*515 FILLER_0_20_253
*516 FILLER_0_20_265
*517 FILLER_0_20_27
*518 FILLER_0_20_277
*519 FILLER_0_20_289
*520 FILLER_0_20_29
*521 FILLER_0_20_3
*522 FILLER_0_20_301
*523 FILLER_0_20_307
*524 FILLER_0_20_309
*525 FILLER_0_20_321
*526 FILLER_0_20_333
*527 FILLER_0_20_345
*528 FILLER_0_20_41
*529 FILLER_0_20_53
*530 FILLER_0_20_65
*531 FILLER_0_20_77
*532 FILLER_0_20_83
*533 FILLER_0_20_85
*534 FILLER_0_20_97
*535 FILLER_0_21_105
*536 FILLER_0_21_111
*537 FILLER_0_21_113
*538 FILLER_0_21_125
*539 FILLER_0_21_137
*540 FILLER_0_21_149
*541 FILLER_0_21_15
*542 FILLER_0_21_161
*543 FILLER_0_21_167
*544 FILLER_0_21_169
*545 FILLER_0_21_181
*546 FILLER_0_21_193
*547 FILLER_0_21_205
*548 FILLER_0_21_217
*549 FILLER_0_21_223
*550 FILLER_0_21_225
*551 FILLER_0_21_237
*552 FILLER_0_21_249
*553 FILLER_0_21_261
*554 FILLER_0_21_27
*555 FILLER_0_21_273
*556 FILLER_0_21_279
*557 FILLER_0_21_281
*558 FILLER_0_21_293
*559 FILLER_0_21_3
*560 FILLER_0_21_305
*561 FILLER_0_21_317
*562 FILLER_0_21_329
*563 FILLER_0_21_335
*564 FILLER_0_21_337
*565 FILLER_0_21_349
*566 FILLER_0_21_39
*567 FILLER_0_21_51
*568 FILLER_0_21_55
*569 FILLER_0_21_57
*570 FILLER_0_21_69
*571 FILLER_0_21_81
*572 FILLER_0_21_93
*573 FILLER_0_22_109
*574 FILLER_0_22_121
*575 FILLER_0_22_133
*576 FILLER_0_22_139
*577 FILLER_0_22_141
*578 FILLER_0_22_15
*579 FILLER_0_22_153
*580 FILLER_0_22_165
*581 FILLER_0_22_177
*582 FILLER_0_22_189
*583 FILLER_0_22_195
*584 FILLER_0_22_197
*585 FILLER_0_22_209
*586 FILLER_0_22_221
*587 FILLER_0_22_233
*588 FILLER_0_22_245
*589 FILLER_0_22_251
*590 FILLER_0_22_253
*591 FILLER_0_22_265
*592 FILLER_0_22_27
*593 FILLER_0_22_277
*594 FILLER_0_22_289
*595 FILLER_0_22_29
*596 FILLER_0_22_3
*597 FILLER_0_22_301
*598 FILLER_0_22_307
*599 FILLER_0_22_309
*600 FILLER_0_22_321
*601 FILLER_0_22_333
*602 FILLER_0_22_345
*603 FILLER_0_22_41
*604 FILLER_0_22_53
*605 FILLER_0_22_65
*606 FILLER_0_22_77
*607 FILLER_0_22_83
*608 FILLER_0_22_85
*609 FILLER_0_22_97
*610 FILLER_0_23_105
*611 FILLER_0_23_111
*612 FILLER_0_23_113
*613 FILLER_0_23_125
*614 FILLER_0_23_137
*615 FILLER_0_23_149
*616 FILLER_0_23_15
*617 FILLER_0_23_161
*618 FILLER_0_23_167
*619 FILLER_0_23_169
*620 FILLER_0_23_181
*621 FILLER_0_23_193
*622 FILLER_0_23_205
*623 FILLER_0_23_217
*624 FILLER_0_23_223
*625 FILLER_0_23_225
*626 FILLER_0_23_237
*627 FILLER_0_23_249
*628 FILLER_0_23_261
*629 FILLER_0_23_27
*630 FILLER_0_23_273
*631 FILLER_0_23_279
*632 FILLER_0_23_281
*633 FILLER_0_23_293
*634 FILLER_0_23_3
*635 FILLER_0_23_305
*636 FILLER_0_23_317
*637 FILLER_0_23_329
*638 FILLER_0_23_335
*639 FILLER_0_23_337
*640 FILLER_0_23_349
*641 FILLER_0_23_39
*642 FILLER_0_23_51
*643 FILLER_0_23_55
*644 FILLER_0_23_57
*645 FILLER_0_23_69
*646 FILLER_0_23_81
*647 FILLER_0_23_93
*648 FILLER_0_24_109
*649 FILLER_0_24_121
*650 FILLER_0_24_133
*651 FILLER_0_24_139
*652 FILLER_0_24_141
*653 FILLER_0_24_15
*654 FILLER_0_24_153
*655 FILLER_0_24_165
*656 FILLER_0_24_177
*657 FILLER_0_24_189
*658 FILLER_0_24_195
*659 FILLER_0_24_197
*660 FILLER_0_24_209
*661 FILLER_0_24_221
*662 FILLER_0_24_233
*663 FILLER_0_24_245
*664 FILLER_0_24_251
*665 FILLER_0_24_253
*666 FILLER_0_24_265
*667 FILLER_0_24_27
*668 FILLER_0_24_277
*669 FILLER_0_24_289
*670 FILLER_0_24_29
*671 FILLER_0_24_3
*672 FILLER_0_24_301
*673 FILLER_0_24_307
*674 FILLER_0_24_309
*675 FILLER_0_24_321
*676 FILLER_0_24_333
*677 FILLER_0_24_345
*678 FILLER_0_24_41
*679 FILLER_0_24_53
*680 FILLER_0_24_65
*681 FILLER_0_24_77
*682 FILLER_0_24_83
*683 FILLER_0_24_85
*684 FILLER_0_24_97
*685 FILLER_0_25_105
*686 FILLER_0_25_111
*687 FILLER_0_25_113
*688 FILLER_0_25_125
*689 FILLER_0_25_137
*690 FILLER_0_25_149
*691 FILLER_0_25_15
*692 FILLER_0_25_161
*693 FILLER_0_25_167
*694 FILLER_0_25_169
*695 FILLER_0_25_181
*696 FILLER_0_25_193
*697 FILLER_0_25_205
*698 FILLER_0_25_217
*699 FILLER_0_25_223
*700 FILLER_0_25_225
*701 FILLER_0_25_237
*702 FILLER_0_25_249
*703 FILLER_0_25_261
*704 FILLER_0_25_27
*705 FILLER_0_25_273
*706 FILLER_0_25_279
*707 FILLER_0_25_281
*708 FILLER_0_25_293
*709 FILLER_0_25_3
*710 FILLER_0_25_305
*711 FILLER_0_25_317
*712 FILLER_0_25_329
*713 FILLER_0_25_335
*714 FILLER_0_25_337
*715 FILLER_0_25_349
*716 FILLER_0_25_39
*717 FILLER_0_25_51
*718 FILLER_0_25_55
*719 FILLER_0_25_57
*720 FILLER_0_25_69
*721 FILLER_0_25_81
*722 FILLER_0_25_93
*723 FILLER_0_26_109
*724 FILLER_0_26_121
*725 FILLER_0_26_133
*726 FILLER_0_26_139
*727 FILLER_0_26_141
*728 FILLER_0_26_15
*729 FILLER_0_26_153
*730 FILLER_0_26_165
*731 FILLER_0_26_177
*732 FILLER_0_26_189
*733 FILLER_0_26_195
*734 FILLER_0_26_197
*735 FILLER_0_26_209
*736 FILLER_0_26_221
*737 FILLER_0_26_233
*738 FILLER_0_26_245
*739 FILLER_0_26_251
*740 FILLER_0_26_253
*741 FILLER_0_26_265
*742 FILLER_0_26_27
*743 FILLER_0_26_277
*744 FILLER_0_26_289
*745 FILLER_0_26_29
*746 FILLER_0_26_3
*747 FILLER_0_26_301
*748 FILLER_0_26_307
*749 FILLER_0_26_309
*750 FILLER_0_26_321
*751 FILLER_0_26_333
*752 FILLER_0_26_345
*753 FILLER_0_26_41
*754 FILLER_0_26_53
*755 FILLER_0_26_65
*756 FILLER_0_26_77
*757 FILLER_0_26_83
*758 FILLER_0_26_85
*759 FILLER_0_26_97
*760 FILLER_0_27_105
*761 FILLER_0_27_111
*762 FILLER_0_27_113
*763 FILLER_0_27_125
*764 FILLER_0_27_137
*765 FILLER_0_27_149
*766 FILLER_0_27_15
*767 FILLER_0_27_161
*768 FILLER_0_27_167
*769 FILLER_0_27_169
*770 FILLER_0_27_181
*771 FILLER_0_27_193
*772 FILLER_0_27_205
*773 FILLER_0_27_217
*774 FILLER_0_27_223
*775 FILLER_0_27_225
*776 FILLER_0_27_237
*777 FILLER_0_27_249
*778 FILLER_0_27_261
*779 FILLER_0_27_27
*780 FILLER_0_27_273
*781 FILLER_0_27_279
*782 FILLER_0_27_281
*783 FILLER_0_27_293
*784 FILLER_0_27_3
*785 FILLER_0_27_305
*786 FILLER_0_27_317
*787 FILLER_0_27_329
*788 FILLER_0_27_335
*789 FILLER_0_27_337
*790 FILLER_0_27_349
*791 FILLER_0_27_39
*792 FILLER_0_27_51
*793 FILLER_0_27_55
*794 FILLER_0_27_57
*795 FILLER_0_27_69
*796 FILLER_0_27_81
*797 FILLER_0_27_93
*798 FILLER_0_28_109
*799 FILLER_0_28_121
*800 FILLER_0_28_133
*801 FILLER_0_28_139
*802 FILLER_0_28_141
*803 FILLER_0_28_15
*804 FILLER_0_28_153
*805 FILLER_0_28_165
*806 FILLER_0_28_177
*807 FILLER_0_28_189
*808 FILLER_0_28_195
*809 FILLER_0_28_197
*810 FILLER_0_28_209
*811 FILLER_0_28_221
*812 FILLER_0_28_233
*813 FILLER_0_28_245
*814 FILLER_0_28_251
*815 FILLER_0_28_253
*816 FILLER_0_28_265
*817 FILLER_0_28_27
*818 FILLER_0_28_277
*819 FILLER_0_28_289
*820 FILLER_0_28_29
*821 FILLER_0_28_3
*822 FILLER_0_28_301
*823 FILLER_0_28_307
*824 FILLER_0_28_309
*825 FILLER_0_28_321
*826 FILLER_0_28_333
*827 FILLER_0_28_345
*828 FILLER_0_28_41
*829 FILLER_0_28_53
*830 FILLER_0_28_65
*831 FILLER_0_28_77
*832 FILLER_0_28_83
*833 FILLER_0_28_85
*834 FILLER_0_28_97
*835 FILLER_0_29_105
*836 FILLER_0_29_111
*837 FILLER_0_29_113
*838 FILLER_0_29_125
*839 FILLER_0_29_137
*840 FILLER_0_29_149
*841 FILLER_0_29_15
*842 FILLER_0_29_161
*843 FILLER_0_29_167
*844 FILLER_0_29_169
*845 FILLER_0_29_181
*846 FILLER_0_29_193
*847 FILLER_0_29_205
*848 FILLER_0_29_217
*849 FILLER_0_29_223
*850 FILLER_0_29_225
*851 FILLER_0_29_237
*852 FILLER_0_29_249
*853 FILLER_0_29_261
*854 FILLER_0_29_27
*855 FILLER_0_29_273
*856 FILLER_0_29_279
*857 FILLER_0_29_281
*858 FILLER_0_29_293
*859 FILLER_0_29_3
*860 FILLER_0_29_305
*861 FILLER_0_29_317
*862 FILLER_0_29_329
*863 FILLER_0_29_335
*864 FILLER_0_29_337
*865 FILLER_0_29_349
*866 FILLER_0_29_39
*867 FILLER_0_29_51
*868 FILLER_0_29_55
*869 FILLER_0_29_57
*870 FILLER_0_29_69
*871 FILLER_0_29_81
*872 FILLER_0_29_93
*873 FILLER_0_2_109
*874 FILLER_0_2_121
*875 FILLER_0_2_133
*876 FILLER_0_2_139
*877 FILLER_0_2_141
*878 FILLER_0_2_15
*879 FILLER_0_2_153
*880 FILLER_0_2_165
*881 FILLER_0_2_177
*882 FILLER_0_2_189
*883 FILLER_0_2_195
*884 FILLER_0_2_197
*885 FILLER_0_2_209
*886 FILLER_0_2_221
*887 FILLER_0_2_233
*888 FILLER_0_2_245
*889 FILLER_0_2_251
*890 FILLER_0_2_253
*891 FILLER_0_2_265
*892 FILLER_0_2_27
*893 FILLER_0_2_277
*894 FILLER_0_2_289
*895 FILLER_0_2_29
*896 FILLER_0_2_3
*897 FILLER_0_2_301
*898 FILLER_0_2_307
*899 FILLER_0_2_309
*900 FILLER_0_2_321
*901 FILLER_0_2_333
*902 FILLER_0_2_345
*903 FILLER_0_2_41
*904 FILLER_0_2_53
*905 FILLER_0_2_65
*906 FILLER_0_2_77
*907 FILLER_0_2_83
*908 FILLER_0_2_85
*909 FILLER_0_2_97
*910 FILLER_0_30_109
*911 FILLER_0_30_121
*912 FILLER_0_30_133
*913 FILLER_0_30_139
*914 FILLER_0_30_141
*915 FILLER_0_30_15
*916 FILLER_0_30_153
*917 FILLER_0_30_165
*918 FILLER_0_30_177
*919 FILLER_0_30_189
*920 FILLER_0_30_195
*921 FILLER_0_30_197
*922 FILLER_0_30_209
*923 FILLER_0_30_221
*924 FILLER_0_30_233
*925 FILLER_0_30_245
*926 FILLER_0_30_251
*927 FILLER_0_30_253
*928 FILLER_0_30_265
*929 FILLER_0_30_27
*930 FILLER_0_30_277
*931 FILLER_0_30_289
*932 FILLER_0_30_29
*933 FILLER_0_30_3
*934 FILLER_0_30_301
*935 FILLER_0_30_307
*936 FILLER_0_30_309
*937 FILLER_0_30_321
*938 FILLER_0_30_333
*939 FILLER_0_30_345
*940 FILLER_0_30_41
*941 FILLER_0_30_53
*942 FILLER_0_30_65
*943 FILLER_0_30_77
*944 FILLER_0_30_83
*945 FILLER_0_30_85
*946 FILLER_0_30_97
*947 FILLER_0_31_105
*948 FILLER_0_31_111
*949 FILLER_0_31_113
*950 FILLER_0_31_125
*951 FILLER_0_31_137
*952 FILLER_0_31_149
*953 FILLER_0_31_15
*954 FILLER_0_31_161
*955 FILLER_0_31_167
*956 FILLER_0_31_169
*957 FILLER_0_31_181
*958 FILLER_0_31_193
*959 FILLER_0_31_205
*960 FILLER_0_31_217
*961 FILLER_0_31_223
*962 FILLER_0_31_225
*963 FILLER_0_31_237
*964 FILLER_0_31_249
*965 FILLER_0_31_261
*966 FILLER_0_31_27
*967 FILLER_0_31_273
*968 FILLER_0_31_279
*969 FILLER_0_31_281
*970 FILLER_0_31_293
*971 FILLER_0_31_3
*972 FILLER_0_31_305
*973 FILLER_0_31_317
*974 FILLER_0_31_329
*975 FILLER_0_31_335
*976 FILLER_0_31_337
*977 FILLER_0_31_349
*978 FILLER_0_31_39
*979 FILLER_0_31_51
*980 FILLER_0_31_55
*981 FILLER_0_31_57
*982 FILLER_0_31_69
*983 FILLER_0_31_81
*984 FILLER_0_31_93
*985 FILLER_0_32_109
*986 FILLER_0_32_121
*987 FILLER_0_32_133
*988 FILLER_0_32_139
*989 FILLER_0_32_141
*990 FILLER_0_32_15
*991 FILLER_0_32_153
*992 FILLER_0_32_165
*993 FILLER_0_32_177
*994 FILLER_0_32_189
*995 FILLER_0_32_195
*996 FILLER_0_32_197
*997 FILLER_0_32_209
*998 FILLER_0_32_221
*999 FILLER_0_32_233
*1000 FILLER_0_32_245
*1001 FILLER_0_32_251
*1002 FILLER_0_32_253
*1003 FILLER_0_32_265
*1004 FILLER_0_32_27
*1005 FILLER_0_32_277
*1006 FILLER_0_32_289
*1007 FILLER_0_32_29
*1008 FILLER_0_32_3
*1009 FILLER_0_32_301
*1010 FILLER_0_32_307
*1011 FILLER_0_32_309
*1012 FILLER_0_32_321
*1013 FILLER_0_32_333
*1014 FILLER_0_32_345
*1015 FILLER_0_32_41
*1016 FILLER_0_32_53
*1017 FILLER_0_32_65
*1018 FILLER_0_32_77
*1019 FILLER_0_32_83
*1020 FILLER_0_32_85
*1021 FILLER_0_32_97
*1022 FILLER_0_33_105
*1023 FILLER_0_33_111
*1024 FILLER_0_33_113
*1025 FILLER_0_33_125
*1026 FILLER_0_33_137
*1027 FILLER_0_33_149
*1028 FILLER_0_33_15
*1029 FILLER_0_33_161
*1030 FILLER_0_33_167
*1031 FILLER_0_33_169
*1032 FILLER_0_33_181
*1033 FILLER_0_33_193
*1034 FILLER_0_33_205
*1035 FILLER_0_33_217
*1036 FILLER_0_33_223
*1037 FILLER_0_33_225
*1038 FILLER_0_33_237
*1039 FILLER_0_33_249
*1040 FILLER_0_33_261
*1041 FILLER_0_33_27
*1042 FILLER_0_33_273
*1043 FILLER_0_33_279
*1044 FILLER_0_33_281
*1045 FILLER_0_33_293
*1046 FILLER_0_33_3
*1047 FILLER_0_33_305
*1048 FILLER_0_33_317
*1049 FILLER_0_33_329
*1050 FILLER_0_33_335
*1051 FILLER_0_33_337
*1052 FILLER_0_33_349
*1053 FILLER_0_33_39
*1054 FILLER_0_33_51
*1055 FILLER_0_33_55
*1056 FILLER_0_33_57
*1057 FILLER_0_33_69
*1058 FILLER_0_33_81
*1059 FILLER_0_33_93
*1060 FILLER_0_34_109
*1061 FILLER_0_34_121
*1062 FILLER_0_34_133
*1063 FILLER_0_34_139
*1064 FILLER_0_34_141
*1065 FILLER_0_34_15
*1066 FILLER_0_34_153
*1067 FILLER_0_34_165
*1068 FILLER_0_34_177
*1069 FILLER_0_34_189
*1070 FILLER_0_34_195
*1071 FILLER_0_34_197
*1072 FILLER_0_34_209
*1073 FILLER_0_34_221
*1074 FILLER_0_34_233
*1075 FILLER_0_34_245
*1076 FILLER_0_34_251
*1077 FILLER_0_34_253
*1078 FILLER_0_34_265
*1079 FILLER_0_34_27
*1080 FILLER_0_34_277
*1081 FILLER_0_34_289
*1082 FILLER_0_34_29
*1083 FILLER_0_34_3
*1084 FILLER_0_34_301
*1085 FILLER_0_34_307
*1086 FILLER_0_34_309
*1087 FILLER_0_34_321
*1088 FILLER_0_34_333
*1089 FILLER_0_34_345
*1090 FILLER_0_34_41
*1091 FILLER_0_34_53
*1092 FILLER_0_34_65
*1093 FILLER_0_34_77
*1094 FILLER_0_34_83
*1095 FILLER_0_34_85
*1096 FILLER_0_34_97
*1097 FILLER_0_35_105
*1098 FILLER_0_35_111
*1099 FILLER_0_35_113
*1100 FILLER_0_35_125
*1101 FILLER_0_35_137
*1102 FILLER_0_35_149
*1103 FILLER_0_35_15
*1104 FILLER_0_35_161
*1105 FILLER_0_35_167
*1106 FILLER_0_35_169
*1107 FILLER_0_35_181
*1108 FILLER_0_35_193
*1109 FILLER_0_35_205
*1110 FILLER_0_35_217
*1111 FILLER_0_35_223
*1112 FILLER_0_35_225
*1113 FILLER_0_35_237
*1114 FILLER_0_35_249
*1115 FILLER_0_35_261
*1116 FILLER_0_35_27
*1117 FILLER_0_35_273
*1118 FILLER_0_35_279
*1119 FILLER_0_35_281
*1120 FILLER_0_35_293
*1121 FILLER_0_35_3
*1122 FILLER_0_35_305
*1123 FILLER_0_35_317
*1124 FILLER_0_35_329
*1125 FILLER_0_35_335
*1126 FILLER_0_35_337
*1127 FILLER_0_35_349
*1128 FILLER_0_35_39
*1129 FILLER_0_35_51
*1130 FILLER_0_35_55
*1131 FILLER_0_35_57
*1132 FILLER_0_35_69
*1133 FILLER_0_35_81
*1134 FILLER_0_35_93
*1135 FILLER_0_36_109
*1136 FILLER_0_36_121
*1137 FILLER_0_36_133
*1138 FILLER_0_36_139
*1139 FILLER_0_36_141
*1140 FILLER_0_36_15
*1141 FILLER_0_36_153
*1142 FILLER_0_36_165
*1143 FILLER_0_36_177
*1144 FILLER_0_36_189
*1145 FILLER_0_36_195
*1146 FILLER_0_36_197
*1147 FILLER_0_36_209
*1148 FILLER_0_36_221
*1149 FILLER_0_36_233
*1150 FILLER_0_36_245
*1151 FILLER_0_36_251
*1152 FILLER_0_36_253
*1153 FILLER_0_36_265
*1154 FILLER_0_36_27
*1155 FILLER_0_36_277
*1156 FILLER_0_36_289
*1157 FILLER_0_36_29
*1158 FILLER_0_36_3
*1159 FILLER_0_36_301
*1160 FILLER_0_36_307
*1161 FILLER_0_36_309
*1162 FILLER_0_36_321
*1163 FILLER_0_36_333
*1164 FILLER_0_36_345
*1165 FILLER_0_36_41
*1166 FILLER_0_36_53
*1167 FILLER_0_36_65
*1168 FILLER_0_36_77
*1169 FILLER_0_36_83
*1170 FILLER_0_36_85
*1171 FILLER_0_36_97
*1172 FILLER_0_37_105
*1173 FILLER_0_37_111
*1174 FILLER_0_37_113
*1175 FILLER_0_37_125
*1176 FILLER_0_37_137
*1177 FILLER_0_37_149
*1178 FILLER_0_37_15
*1179 FILLER_0_37_161
*1180 FILLER_0_37_167
*1181 FILLER_0_37_169
*1182 FILLER_0_37_181
*1183 FILLER_0_37_193
*1184 FILLER_0_37_205
*1185 FILLER_0_37_217
*1186 FILLER_0_37_223
*1187 FILLER_0_37_225
*1188 FILLER_0_37_237
*1189 FILLER_0_37_249
*1190 FILLER_0_37_261
*1191 FILLER_0_37_27
*1192 FILLER_0_37_273
*1193 FILLER_0_37_279
*1194 FILLER_0_37_281
*1195 FILLER_0_37_293
*1196 FILLER_0_37_3
*1197 FILLER_0_37_305
*1198 FILLER_0_37_317
*1199 FILLER_0_37_329
*1200 FILLER_0_37_335
*1201 FILLER_0_37_337
*1202 FILLER_0_37_349
*1203 FILLER_0_37_39
*1204 FILLER_0_37_51
*1205 FILLER_0_37_55
*1206 FILLER_0_37_57
*1207 FILLER_0_37_69
*1208 FILLER_0_37_81
*1209 FILLER_0_37_93
*1210 FILLER_0_38_102
*1211 FILLER_0_38_106
*1212 FILLER_0_38_110
*1213 FILLER_0_38_113
*1214 FILLER_0_38_118
*1215 FILLER_0_38_122
*1216 FILLER_0_38_126
*1217 FILLER_0_38_130
*1218 FILLER_0_38_134
*1219 FILLER_0_38_14
*1220 FILLER_0_38_141
*1221 FILLER_0_38_165
*1222 FILLER_0_38_173
*1223 FILLER_0_38_18
*1224 FILLER_0_38_180
*1225 FILLER_0_38_184
*1226 FILLER_0_38_189
*1227 FILLER_0_38_197
*1228 FILLER_0_38_209
*1229 FILLER_0_38_22
*1230 FILLER_0_38_221
*1231 FILLER_0_38_225
*1232 FILLER_0_38_237
*1233 FILLER_0_38_249
*1234 FILLER_0_38_253
*1235 FILLER_0_38_261
*1236 FILLER_0_38_275
*1237 FILLER_0_38_279
*1238 FILLER_0_38_281
*1239 FILLER_0_38_293
*1240 FILLER_0_38_3
*1241 FILLER_0_38_305
*1242 FILLER_0_38_309
*1243 FILLER_0_38_32
*1244 FILLER_0_38_321
*1245 FILLER_0_38_333
*1246 FILLER_0_38_337
*1247 FILLER_0_38_349
*1248 FILLER_0_38_38
*1249 FILLER_0_38_42
*1250 FILLER_0_38_46
*1251 FILLER_0_38_50
*1252 FILLER_0_38_54
*1253 FILLER_0_38_57
*1254 FILLER_0_38_62
*1255 FILLER_0_38_66
*1256 FILLER_0_38_70
*1257 FILLER_0_38_74
*1258 FILLER_0_38_78
*1259 FILLER_0_38_88
*1260 FILLER_0_38_94
*1261 FILLER_0_38_98
*1262 FILLER_0_3_105
*1263 FILLER_0_3_111
*1264 FILLER_0_3_113
*1265 FILLER_0_3_125
*1266 FILLER_0_3_137
*1267 FILLER_0_3_149
*1268 FILLER_0_3_15
*1269 FILLER_0_3_161
*1270 FILLER_0_3_167
*1271 FILLER_0_3_169
*1272 FILLER_0_3_181
*1273 FILLER_0_3_193
*1274 FILLER_0_3_205
*1275 FILLER_0_3_217
*1276 FILLER_0_3_223
*1277 FILLER_0_3_225
*1278 FILLER_0_3_237
*1279 FILLER_0_3_249
*1280 FILLER_0_3_261
*1281 FILLER_0_3_27
*1282 FILLER_0_3_273
*1283 FILLER_0_3_279
*1284 FILLER_0_3_281
*1285 FILLER_0_3_293
*1286 FILLER_0_3_3
*1287 FILLER_0_3_305
*1288 FILLER_0_3_317
*1289 FILLER_0_3_329
*1290 FILLER_0_3_335
*1291 FILLER_0_3_337
*1292 FILLER_0_3_349
*1293 FILLER_0_3_39
*1294 FILLER_0_3_51
*1295 FILLER_0_3_55
*1296 FILLER_0_3_57
*1297 FILLER_0_3_69
*1298 FILLER_0_3_81
*1299 FILLER_0_3_93
*1300 FILLER_0_4_109
*1301 FILLER_0_4_121
*1302 FILLER_0_4_133
*1303 FILLER_0_4_139
*1304 FILLER_0_4_141
*1305 FILLER_0_4_15
*1306 FILLER_0_4_153
*1307 FILLER_0_4_165
*1308 FILLER_0_4_177
*1309 FILLER_0_4_189
*1310 FILLER_0_4_195
*1311 FILLER_0_4_197
*1312 FILLER_0_4_209
*1313 FILLER_0_4_221
*1314 FILLER_0_4_233
*1315 FILLER_0_4_245
*1316 FILLER_0_4_251
*1317 FILLER_0_4_253
*1318 FILLER_0_4_265
*1319 FILLER_0_4_27
*1320 FILLER_0_4_277
*1321 FILLER_0_4_289
*1322 FILLER_0_4_29
*1323 FILLER_0_4_3
*1324 FILLER_0_4_301
*1325 FILLER_0_4_307
*1326 FILLER_0_4_309
*1327 FILLER_0_4_321
*1328 FILLER_0_4_333
*1329 FILLER_0_4_345
*1330 FILLER_0_4_41
*1331 FILLER_0_4_53
*1332 FILLER_0_4_65
*1333 FILLER_0_4_77
*1334 FILLER_0_4_83
*1335 FILLER_0_4_85
*1336 FILLER_0_4_97
*1337 FILLER_0_5_105
*1338 FILLER_0_5_111
*1339 FILLER_0_5_113
*1340 FILLER_0_5_125
*1341 FILLER_0_5_137
*1342 FILLER_0_5_149
*1343 FILLER_0_5_15
*1344 FILLER_0_5_161
*1345 FILLER_0_5_167
*1346 FILLER_0_5_169
*1347 FILLER_0_5_181
*1348 FILLER_0_5_193
*1349 FILLER_0_5_205
*1350 FILLER_0_5_217
*1351 FILLER_0_5_223
*1352 FILLER_0_5_225
*1353 FILLER_0_5_237
*1354 FILLER_0_5_249
*1355 FILLER_0_5_261
*1356 FILLER_0_5_27
*1357 FILLER_0_5_273
*1358 FILLER_0_5_279
*1359 FILLER_0_5_281
*1360 FILLER_0_5_293
*1361 FILLER_0_5_3
*1362 FILLER_0_5_305
*1363 FILLER_0_5_317
*1364 FILLER_0_5_329
*1365 FILLER_0_5_335
*1366 FILLER_0_5_337
*1367 FILLER_0_5_349
*1368 FILLER_0_5_39
*1369 FILLER_0_5_51
*1370 FILLER_0_5_55
*1371 FILLER_0_5_57
*1372 FILLER_0_5_69
*1373 FILLER_0_5_81
*1374 FILLER_0_5_93
*1375 FILLER_0_6_109
*1376 FILLER_0_6_121
*1377 FILLER_0_6_133
*1378 FILLER_0_6_139
*1379 FILLER_0_6_141
*1380 FILLER_0_6_15
*1381 FILLER_0_6_153
*1382 FILLER_0_6_165
*1383 FILLER_0_6_177
*1384 FILLER_0_6_189
*1385 FILLER_0_6_195
*1386 FILLER_0_6_197
*1387 FILLER_0_6_209
*1388 FILLER_0_6_221
*1389 FILLER_0_6_233
*1390 FILLER_0_6_245
*1391 FILLER_0_6_251
*1392 FILLER_0_6_253
*1393 FILLER_0_6_265
*1394 FILLER_0_6_27
*1395 FILLER_0_6_277
*1396 FILLER_0_6_289
*1397 FILLER_0_6_29
*1398 FILLER_0_6_3
*1399 FILLER_0_6_301
*1400 FILLER_0_6_307
*1401 FILLER_0_6_309
*1402 FILLER_0_6_321
*1403 FILLER_0_6_333
*1404 FILLER_0_6_345
*1405 FILLER_0_6_41
*1406 FILLER_0_6_53
*1407 FILLER_0_6_65
*1408 FILLER_0_6_77
*1409 FILLER_0_6_83
*1410 FILLER_0_6_85
*1411 FILLER_0_6_97
*1412 FILLER_0_7_105
*1413 FILLER_0_7_111
*1414 FILLER_0_7_113
*1415 FILLER_0_7_125
*1416 FILLER_0_7_137
*1417 FILLER_0_7_149
*1418 FILLER_0_7_15
*1419 FILLER_0_7_161
*1420 FILLER_0_7_167
*1421 FILLER_0_7_169
*1422 FILLER_0_7_181
*1423 FILLER_0_7_193
*1424 FILLER_0_7_205
*1425 FILLER_0_7_217
*1426 FILLER_0_7_223
*1427 FILLER_0_7_225
*1428 FILLER_0_7_237
*1429 FILLER_0_7_249
*1430 FILLER_0_7_261
*1431 FILLER_0_7_27
*1432 FILLER_0_7_273
*1433 FILLER_0_7_279
*1434 FILLER_0_7_281
*1435 FILLER_0_7_293
*1436 FILLER_0_7_3
*1437 FILLER_0_7_305
*1438 FILLER_0_7_317
*1439 FILLER_0_7_329
*1440 FILLER_0_7_335
*1441 FILLER_0_7_337
*1442 FILLER_0_7_349
*1443 FILLER_0_7_39
*1444 FILLER_0_7_51
*1445 FILLER_0_7_55
*1446 FILLER_0_7_57
*1447 FILLER_0_7_69
*1448 FILLER_0_7_81
*1449 FILLER_0_7_93
*1450 FILLER_0_8_109
*1451 FILLER_0_8_121
*1452 FILLER_0_8_133