*SPEF "ieee 1481-1999"
*DESIGN "tt_um_loopback"
*DATE "11:11:11 Fri 11 11, 1111"
*VENDOR "OpenRCX"
*PROGRAM "Parallel Extraction"
*VERSION "1.0"
*DESIGN_FLOW "NAME_SCOPE LOCAL" "PIN_CAP NONE"
*DIVIDER /
*DELIMITER :
*BUS_DELIMITER []
*T_UNIT 1 NS
*C_UNIT 1 PF
*R_UNIT 1 OHM
*L_UNIT 1 HENRY

*NAME_MAP
*3 clk
*4 ena
*5 rst_n
*6 ui_in[0]
*7 ui_in[1]
*8 ui_in[2]
*9 ui_in[3]
*10 ui_in[4]
*11 ui_in[5]
*12 ui_in[6]
*13 ui_in[7]
*14 uio_in[0]
*15 uio_in[1]
*16 uio_in[2]
*17 uio_in[3]
*18 uio_in[4]
*19 uio_in[5]
*20 uio_in[6]
*21 uio_in[7]
*22 net18
*23 net19
*24 net20
*25 net21
*26 net6
*27 net7
*28 net8
*29 net9
*30 net10
*31 net11
*32 net12
*33 net13
*34 net14
*35 net15
*36 net16
*37 net17
*38 uo_out[0]
*39 uo_out[1]
*40 uo_out[2]
*41 uo_out[3]
*42 uo_out[4]
*43 uo_out[5]
*44 uo_out[6]
*45 uo_out[7]
*46 _00_
*47 net1
*48 net2
*49 net3
*50 net4
*51 net5
*52 FILLER_0_0_109
*53 FILLER_0_0_113
*54 FILLER_0_0_125
*55 FILLER_0_0_137
*56 FILLER_0_0_141
*57 FILLER_0_0_15
*58 FILLER_0_0_153
*59 FILLER_0_0_165
*60 FILLER_0_0_169
*61 FILLER_0_0_181
*62 FILLER_0_0_193
*63 FILLER_0_0_197
*64 FILLER_0_0_209
*65 FILLER_0_0_221
*66 FILLER_0_0_225
*67 FILLER_0_0_237
*68 FILLER_0_0_249
*69 FILLER_0_0_253
*70 FILLER_0_0_265
*71 FILLER_0_0_27
*72 FILLER_0_0_277
*73 FILLER_0_0_281
*74 FILLER_0_0_29
*75 FILLER_0_0_293
*76 FILLER_0_0_3
*77 FILLER_0_0_305
*78 FILLER_0_0_309
*79 FILLER_0_0_321
*80 FILLER_0_0_333
*81 FILLER_0_0_337
*82 FILLER_0_0_349
*83 FILLER_0_0_41
*84 FILLER_0_0_53
*85 FILLER_0_0_57
*86 FILLER_0_0_69
*87 FILLER_0_0_81
*88 FILLER_0_0_85
*89 FILLER_0_0_97
*90 FILLER_0_10_109
*91 FILLER_0_10_121
*92 FILLER_0_10_133
*93 FILLER_0_10_139
*94 FILLER_0_10_141
*95 FILLER_0_10_15
*96 FILLER_0_10_153
*97 FILLER_0_10_165
*98 FILLER_0_10_177
*99 FILLER_0_10_189
*100 FILLER_0_10_195
*101 FILLER_0_10_197
*102 FILLER_0_10_209
*103 FILLER_0_10_221
*104 FILLER_0_10_233
*105 FILLER_0_10_245
*106 FILLER_0_10_251
*107 FILLER_0_10_253
*108 FILLER_0_10_265
*109 FILLER_0_10_27
*110 FILLER_0_10_277
*111 FILLER_0_10_289
*112 FILLER_0_10_29
*113 FILLER_0_10_3
*114 FILLER_0_10_301
*115 FILLER_0_10_307
*116 FILLER_0_10_309
*117 FILLER_0_10_321
*118 FILLER_0_10_333
*119 FILLER_0_10_345
*120 FILLER_0_10_41
*121 FILLER_0_10_53
*122 FILLER_0_10_65
*123 FILLER_0_10_77
*124 FILLER_0_10_83
*125 FILLER_0_10_85
*126 FILLER_0_10_97
*127 FILLER_0_11_105
*128 FILLER_0_11_111
*129 FILLER_0_11_113
*130 FILLER_0_11_125
*131 FILLER_0_11_137
*132 FILLER_0_11_149
*133 FILLER_0_11_15
*134 FILLER_0_11_161
*135 FILLER_0_11_167
*136 FILLER_0_11_169
*137 FILLER_0_11_181
*138 FILLER_0_11_193
*139 FILLER_0_11_205
*140 FILLER_0_11_217
*141 FILLER_0_11_223
*142 FILLER_0_11_225
*143 FILLER_0_11_237
*144 FILLER_0_11_249
*145 FILLER_0_11_261
*146 FILLER_0_11_27
*147 FILLER_0_11_273
*148 FILLER_0_11_279
*149 FILLER_0_11_281
*150 FILLER_0_11_293
*151 FILLER_0_11_3
*152 FILLER_0_11_305
*153 FILLER_0_11_317
*154 FILLER_0_11_329
*155 FILLER_0_11_335
*156 FILLER_0_11_337
*157 FILLER_0_11_349
*158 FILLER_0_11_39
*159 FILLER_0_11_51
*160 FILLER_0_11_55
*161 FILLER_0_11_57
*162 FILLER_0_11_69
*163 FILLER_0_11_81
*164 FILLER_0_11_93
*165 FILLER_0_12_109
*166 FILLER_0_12_121
*167 FILLER_0_12_133
*168 FILLER_0_12_139
*169 FILLER_0_12_141
*170 FILLER_0_12_15
*171 FILLER_0_12_153
*172 FILLER_0_12_165
*173 FILLER_0_12_177
*174 FILLER_0_12_189
*175 FILLER_0_12_195
*176 FILLER_0_12_197
*177 FILLER_0_12_209
*178 FILLER_0_12_221
*179 FILLER_0_12_233
*180 FILLER_0_12_245
*181 FILLER_0_12_251
*182 FILLER_0_12_253
*183 FILLER_0_12_265
*184 FILLER_0_12_27
*185 FILLER_0_12_277
*186 FILLER_0_12_289
*187 FILLER_0_12_29
*188 FILLER_0_12_3
*189 FILLER_0_12_301
*190 FILLER_0_12_307
*191 FILLER_0_12_309
*192 FILLER_0_12_321
*193 FILLER_0_12_333
*194 FILLER_0_12_345
*195 FILLER_0_12_41
*196 FILLER_0_12_53
*197 FILLER_0_12_65
*198 FILLER_0_12_77
*199 FILLER_0_12_83
*200 FILLER_0_12_85
*201 FILLER_0_12_97
*202 FILLER_0_13_105
*203 FILLER_0_13_111
*204 FILLER_0_13_113
*205 FILLER_0_13_125
*206 FILLER_0_13_137
*207 FILLER_0_13_149
*208 FILLER_0_13_15
*209 FILLER_0_13_161
*210 FILLER_0_13_167
*211 FILLER_0_13_169
*212 FILLER_0_13_181
*213 FILLER_0_13_193
*214 FILLER_0_13_205
*215 FILLER_0_13_217
*216 FILLER_0_13_223
*217 FILLER_0_13_225
*218 FILLER_0_13_237
*219 FILLER_0_13_249
*220 FILLER_0_13_261
*221 FILLER_0_13_27
*222 FILLER_0_13_273
*223 FILLER_0_13_279
*224 FILLER_0_13_281
*225 FILLER_0_13_293
*226 FILLER_0_13_3
*227 FILLER_0_13_305
*228 FILLER_0_13_317
*229 FILLER_0_13_329
*230 FILLER_0_13_335
*231 FILLER_0_13_337
*232 FILLER_0_13_349
*233 FILLER_0_13_39
*234 FILLER_0_13_51
*235 FILLER_0_13_55
*236 FILLER_0_13_57
*237 FILLER_0_13_69
*238 FILLER_0_13_81
*239 FILLER_0_13_93
*240 FILLER_0_14_109
*241 FILLER_0_14_121
*242 FILLER_0_14_133
*243 FILLER_0_14_139
*244 FILLER_0_14_141
*245 FILLER_0_14_15
*246 FILLER_0_14_153
*247 FILLER_0_14_165
*248 FILLER_0_14_177
*249 FILLER_0_14_189
*250 FILLER_0_14_195
*251 FILLER_0_14_197
*252 FILLER_0_14_209
*253 FILLER_0_14_221
*254 FILLER_0_14_233
*255 FILLER_0_14_245
*256 FILLER_0_14_251
*257 FILLER_0_14_253
*258 FILLER_0_14_265
*259 FILLER_0_14_27
*260 FILLER_0_14_277
*261 FILLER_0_14_289
*262 FILLER_0_14_29
*263 FILLER_0_14_3
*264 FILLER_0_14_301
*265 FILLER_0_14_307
*266 FILLER_0_14_309
*267 FILLER_0_14_321
*268 FILLER_0_14_333
*269 FILLER_0_14_345
*270 FILLER_0_14_41
*271 FILLER_0_14_53
*272 FILLER_0_14_65
*273 FILLER_0_14_77
*274 FILLER_0_14_83
*275 FILLER_0_14_85
*276 FILLER_0_14_97
*277 FILLER_0_15_105
*278 FILLER_0_15_111
*279 FILLER_0_15_113
*280 FILLER_0_15_125
*281 FILLER_0_15_137
*282 FILLER_0_15_149
*283 FILLER_0_15_15
*284 FILLER_0_15_161
*285 FILLER_0_15_167
*286 FILLER_0_15_169
*287 FILLER_0_15_181
*288 FILLER_0_15_193
*289 FILLER_0_15_205
*290 FILLER_0_15_217
*291 FILLER_0_15_223
*292 FILLER_0_15_225
*293 FILLER_0_15_237
*294 FILLER_0_15_249
*295 FILLER_0_15_261
*296 FILLER_0_15_27
*297 FILLER_0_15_273
*298 FILLER_0_15_279
*299 FILLER_0_15_281
*300 FILLER_0_15_293
*301 FILLER_0_15_3
*302 FILLER_0_15_305
*303 FILLER_0_15_317
*304 FILLER_0_15_329
*305 FILLER_0_15_335
*306 FILLER_0_15_337
*307 FILLER_0_15_349
*308 FILLER_0_15_39
*309 FILLER_0_15_51
*310 FILLER_0_15_55
*311 FILLER_0_15_57
*312 FILLER_0_15_69
*313 FILLER_0_15_81
*314 FILLER_0_15_93
*315 FILLER_0_16_109
*316 FILLER_0_16_121
*317 FILLER_0_16_133
*318 FILLER_0_16_139
*319 FILLER_0_16_141
*320 FILLER_0_16_15
*321 FILLER_0_16_153
*322 FILLER_0_16_165
*323 FILLER_0_16_177
*324 FILLER_0_16_189
*325 FILLER_0_16_195
*326 FILLER_0_16_197
*327 FILLER_0_16_209
*328 FILLER_0_16_221
*329 FILLER_0_16_233
*330 FILLER_0_16_245
*331 FILLER_0_16_251
*332 FILLER_0_16_253
*333 FILLER_0_16_265
*334 FILLER_0_16_27
*335 FILLER_0_16_277
*336 FILLER_0_16_289
*337 FILLER_0_16_29
*338 FILLER_0_16_3
*339 FILLER_0_16_301
*340 FILLER_0_16_307
*341 FILLER_0_16_309
*342 FILLER_0_16_321
*343 FILLER_0_16_333
*344 FILLER_0_16_345
*345 FILLER_0_16_41
*346 FILLER_0_16_53
*347 FILLER_0_16_65
*348 FILLER_0_16_77
*349 FILLER_0_16_83
*350 FILLER_0_16_85
*351 FILLER_0_16_97
*352 FILLER_0_17_105
*353 FILLER_0_17_111
*354 FILLER_0_17_113
*355 FILLER_0_17_125
*356 FILLER_0_17_137
*357 FILLER_0_17_149
*358 FILLER_0_17_15
*359 FILLER_0_17_161
*360 FILLER_0_17_167
*361 FILLER_0_17_169
*362 FILLER_0_17_181
*363 FILLER_0_17_193
*364 FILLER_0_17_205
*365 FILLER_0_17_217
*366 FILLER_0_17_223
*367 FILLER_0_17_225
*368 FILLER_0_17_237
*369 FILLER_0_17_249
*370 FILLER_0_17_261
*371 FILLER_0_17_27
*372 FILLER_0_17_273
*373 FILLER_0_17_279
*374 FILLER_0_17_281
*375 FILLER_0_17_293
*376 FILLER_0_17_3
*377 FILLER_0_17_305
*378 FILLER_0_17_317
*379 FILLER_0_17_329
*380 FILLER_0_17_335
*381 FILLER_0_17_337
*382 FILLER_0_17_349
*383 FILLER_0_17_39
*384 FILLER_0_17_51
*385 FILLER_0_17_55
*386 FILLER_0_17_57
*387 FILLER_0_17_69
*388 FILLER_0_17_81
*389 FILLER_0_17_93
*390 FILLER_0_18_109
*391 FILLER_0_18_121
*392 FILLER_0_18_133
*393 FILLER_0_18_139
*394 FILLER_0_18_141
*395 FILLER_0_18_15
*396 FILLER_0_18_153
*397 FILLER_0_18_165
*398 FILLER_0_18_177
*399 FILLER_0_18_189
*400 FILLER_0_18_195
*401 FILLER_0_18_197
*402 FILLER_0_18_209
*403 FILLER_0_18_221
*404 FILLER_0_18_233
*405 FILLER_0_18_245
*406 FILLER_0_18_251
*407 FILLER_0_18_253
*408 FILLER_0_18_265
*409 FILLER_0_18_27
*410 FILLER_0_18_277
*411 FILLER_0_18_289
*412 FILLER_0_18_29
*413 FILLER_0_18_3
*414 FILLER_0_18_301
*415 FILLER_0_18_307
*416 FILLER_0_18_309
*417 FILLER_0_18_321
*418 FILLER_0_18_333
*419 FILLER_0_18_345
*420 FILLER_0_18_41
*421 FILLER_0_18_53
*422 FILLER_0_18_65
*423 FILLER_0_18_77
*424 FILLER_0_18_83
*425 FILLER_0_18_85
*426 FILLER_0_18_97
*427 FILLER_0_19_105
*428 FILLER_0_19_111
*429 FILLER_0_19_113
*430 FILLER_0_19_125
*431 FILLER_0_19_137
*432 FILLER_0_19_149
*433 FILLER_0_19_15
*434 FILLER_0_19_161
*435 FILLER_0_19_167
*436 FILLER_0_19_169
*437 FILLER_0_19_181
*438 FILLER_0_19_193
*439 FILLER_0_19_205
*440 FILLER_0_19_217
*441 FILLER_0_19_223
*442 FILLER_0_19_225
*443 FILLER_0_19_237
*444 FILLER_0_19_249
*445 FILLER_0_19_261
*446 FILLER_0_19_27
*447 FILLER_0_19_273
*448 FILLER_0_19_279
*449 FILLER_0_19_281
*450 FILLER_0_19_293
*451 FILLER_0_19_3
*452 FILLER_0_19_305
*453 FILLER_0_19_317
*454 FILLER_0_19_329
*455 FILLER_0_19_335
*456 FILLER_0_19_337
*457 FILLER_0_19_349
*458 FILLER_0_19_39
*459 FILLER_0_19_51
*460 FILLER_0_19_55
*461 FILLER_0_19_57
*462 FILLER_0_19_69
*463 FILLER_0_19_81
*464 FILLER_0_19_93
*465 FILLER_0_1_105
*466 FILLER_0_1_111
*467 FILLER_0_1_113
*468 FILLER_0_1_125
*469 FILLER_0_1_137
*470 FILLER_0_1_149
*471 FILLER_0_1_15
*472 FILLER_0_1_161
*473 FILLER_0_1_167
*474 FILLER_0_1_169
*475 FILLER_0_1_181
*476 FILLER_0_1_193
*477 FILLER_0_1_205
*478 FILLER_0_1_217
*479 FILLER_0_1_223
*480 FILLER_0_1_225
*481 FILLER_0_1_237
*482 FILLER_0_1_249
*483 FILLER_0_1_261
*484 FILLER_0_1_27
*485 FILLER_0_1_273
*486 FILLER_0_1_279
*487 FILLER_0_1_281
*488 FILLER_0_1_293
*489 FILLER_0_1_3
*490 FILLER_0_1_305
*491 FILLER_0_1_317
*492 FILLER_0_1_329
*493 FILLER_0_1_335
*494 FILLER_0_1_337
*495 FILLER_0_1_349
*496 FILLER_0_1_39
*497 FILLER_0_1_51
*498 FILLER_0_1_55
*499 FILLER_0_1_57
*500 FILLER_0_1_69
*501 FILLER_0_1_81
*502 FILLER_0_1_93
*503 FILLER_0_20_109
*504 FILLER_0_20_121
*505 FILLER_0_20_133
*506 FILLER_0_20_139
*507 FILLER_0_20_141
*508 FILLER_0_20_15
*509 FILLER_0_20_153
*510 FILLER_0_20_165
*511 FILLER_0_20_177
*512 FILLER_0_20_189
*513 FILLER_0_20_195
*514 FILLER_0_20_197
*515 FILLER_0_20_209
*516 FILLER_0_20_221
*517 FILLER_0_20_233
*518 FILLER_0_20_245
*519 FILLER_0_20_251
*520 FILLER_0_20_253
*521 FILLER_0_20_265
*522 FILLER_0_20_27
*523 FILLER_0_20_277
*524 FILLER_0_20_289
*525 FILLER_0_20_29
*526 FILLER_0_20_3
*527 FILLER_0_20_301
*528 FILLER_0_20_307
*529 FILLER_0_20_309
*530 FILLER_0_20_321
*531 FILLER_0_20_333
*532 FILLER_0_20_345
*533 FILLER_0_20_41
*534 FILLER_0_20_53
*535 FILLER_0_20_65
*536 FILLER_0_20_77
*537 FILLER_0_20_83
*538 FILLER_0_20_85
*539 FILLER_0_20_97
*540 FILLER_0_21_105
*541 FILLER_0_21_111
*542 FILLER_0_21_113
*543 FILLER_0_21_125
*544 FILLER_0_21_137
*545 FILLER_0_21_149
*546 FILLER_0_21_15
*547 FILLER_0_21_161
*548 FILLER_0_21_167
*549 FILLER_0_21_169
*550 FILLER_0_21_181
*551 FILLER_0_21_193
*552 FILLER_0_21_205
*553 FILLER_0_21_217
*554 FILLER_0_21_223
*555 FILLER_0_21_225
*556 FILLER_0_21_237
*557 FILLER_0_21_249
*558 FILLER_0_21_261
*559 FILLER_0_21_27
*560 FILLER_0_21_273
*561 FILLER_0_21_279
*562 FILLER_0_21_281
*563 FILLER_0_21_293
*564 FILLER_0_21_3
*565 FILLER_0_21_305
*566 FILLER_0_21_317
*567 FILLER_0_21_329
*568 FILLER_0_21_335
*569 FILLER_0_21_337
*570 FILLER_0_21_349
*571 FILLER_0_21_39
*572 FILLER_0_21_51
*573 FILLER_0_21_55
*574 FILLER_0_21_57
*575 FILLER_0_21_69
*576 FILLER_0_21_81
*577 FILLER_0_21_93
*578 FILLER_0_22_109
*579 FILLER_0_22_121
*580 FILLER_0_22_133
*581 FILLER_0_22_139
*582 FILLER_0_22_141
*583 FILLER_0_22_15
*584 FILLER_0_22_153
*585 FILLER_0_22_165
*586 FILLER_0_22_177
*587 FILLER_0_22_189
*588 FILLER_0_22_195
*589 FILLER_0_22_197
*590 FILLER_0_22_209
*591 FILLER_0_22_221
*592 FILLER_0_22_233
*593 FILLER_0_22_245
*594 FILLER_0_22_251
*595 FILLER_0_22_253
*596 FILLER_0_22_265
*597 FILLER_0_22_27
*598 FILLER_0_22_277
*599 FILLER_0_22_289
*600 FILLER_0_22_29
*601 FILLER_0_22_3
*602 FILLER_0_22_301
*603 FILLER_0_22_307
*604 FILLER_0_22_309
*605 FILLER_0_22_321
*606 FILLER_0_22_333
*607 FILLER_0_22_345
*608 FILLER_0_22_41
*609 FILLER_0_22_53
*610 FILLER_0_22_65
*611 FILLER_0_22_77
*612 FILLER_0_22_83
*613 FILLER_0_22_85
*614 FILLER_0_22_97
*615 FILLER_0_23_105
*616 FILLER_0_23_111
*617 FILLER_0_23_113
*618 FILLER_0_23_125
*619 FILLER_0_23_137
*620 FILLER_0_23_149
*621 FILLER_0_23_15
*622 FILLER_0_23_161
*623 FILLER_0_23_167
*624 FILLER_0_23_169
*625 FILLER_0_23_181
*626 FILLER_0_23_193
*627 FILLER_0_23_205
*628 FILLER_0_23_217
*629 FILLER_0_23_223
*630 FILLER_0_23_225
*631 FILLER_0_23_237
*632 FILLER_0_23_249
*633 FILLER_0_23_261
*634 FILLER_0_23_27
*635 FILLER_0_23_273
*636 FILLER_0_23_279
*637 FILLER_0_23_281
*638 FILLER_0_23_293
*639 FILLER_0_23_3
*640 FILLER_0_23_305
*641 FILLER_0_23_317
*642 FILLER_0_23_329
*643 FILLER_0_23_335
*644 FILLER_0_23_337
*645 FILLER_0_23_349
*646 FILLER_0_23_39
*647 FILLER_0_23_51
*648 FILLER_0_23_55
*649 FILLER_0_23_57
*650 FILLER_0_23_69
*651 FILLER_0_23_81
*652 FILLER_0_23_93
*653 FILLER_0_24_109
*654 FILLER_0_24_121
*655 FILLER_0_24_133
*656 FILLER_0_24_139
*657 FILLER_0_24_141
*658 FILLER_0_24_15
*659 FILLER_0_24_153
*660 FILLER_0_24_165
*661 FILLER_0_24_177
*662 FILLER_0_24_189
*663 FILLER_0_24_195
*664 FILLER_0_24_197
*665 FILLER_0_24_209
*666 FILLER_0_24_221
*667 FILLER_0_24_233
*668 FILLER_0_24_245
*669 FILLER_0_24_251
*670 FILLER_0_24_253
*671 FILLER_0_24_265
*672 FILLER_0_24_27
*673 FILLER_0_24_277
*674 FILLER_0_24_289
*675 FILLER_0_24_29
*676 FILLER_0_24_3
*677 FILLER_0_24_301
*678 FILLER_0_24_307
*679 FILLER_0_24_309
*680 FILLER_0_24_321
*681 FILLER_0_24_333
*682 FILLER_0_24_345
*683 FILLER_0_24_41
*684 FILLER_0_24_53
*685 FILLER_0_24_65
*686 FILLER_0_24_77
*687 FILLER_0_24_83
*688 FILLER_0_24_85
*689 FILLER_0_24_97
*690 FILLER_0_25_105
*691 FILLER_0_25_111
*692 FILLER_0_25_113
*693 FILLER_0_25_125
*694 FILLER_0_25_137
*695 FILLER_0_25_149
*696 FILLER_0_25_15
*697 FILLER_0_25_161
*698 FILLER_0_25_167
*699 FILLER_0_25_169
*700 FILLER_0_25_181
*701 FILLER_0_25_193
*702 FILLER_0_25_205
*703 FILLER_0_25_217
*704 FILLER_0_25_223
*705 FILLER_0_25_225
*706 FILLER_0_25_237
*707 FILLER_0_25_249
*708 FILLER_0_25_261
*709 FILLER_0_25_27
*710 FILLER_0_25_273
*711 FILLER_0_25_279
*712 FILLER_0_25_281
*713 FILLER_0_25_293
*714 FILLER_0_25_3
*715 FILLER_0_25_305
*716 FILLER_0_25_317
*717 FILLER_0_25_329
*718 FILLER_0_25_335
*719 FILLER_0_25_337
*720 FILLER_0_25_349
*721 FILLER_0_25_39
*722 FILLER_0_25_51
*723 FILLER_0_25_55
*724 FILLER_0_25_57
*725 FILLER_0_25_69
*726 FILLER_0_25_81
*727 FILLER_0_25_93
*728 FILLER_0_26_109
*729 FILLER_0_26_121
*730 FILLER_0_26_133
*731 FILLER_0_26_139
*732 FILLER_0_26_141
*733 FILLER_0_26_15
*734 FILLER_0_26_153
*735 FILLER_0_26_165
*736 FILLER_0_26_177
*737 FILLER_0_26_189
*738 FILLER_0_26_195
*739 FILLER_0_26_197
*740 FILLER_0_26_209
*741 FILLER_0_26_221
*742 FILLER_0_26_233
*743 FILLER_0_26_245
*744 FILLER_0_26_251
*745 FILLER_0_26_253
*746 FILLER_0_26_265
*747 FILLER_0_26_27
*748 FILLER_0_26_277
*749 FILLER_0_26_289
*750 FILLER_0_26_29
*751 FILLER_0_26_3
*752 FILLER_0_26_301
*753 FILLER_0_26_307
*754 FILLER_0_26_309
*755 FILLER_0_26_321
*756 FILLER_0_26_333
*757 FILLER_0_26_345
*758 FILLER_0_26_41
*759 FILLER_0_26_53
*760 FILLER_0_26_65
*761 FILLER_0_26_77
*762 FILLER_0_26_83
*763 FILLER_0_26_85
*764 FILLER_0_26_97
*765 FILLER_0_27_105
*766 FILLER_0_27_111
*767 FILLER_0_27_113
*768 FILLER_0_27_125
*769 FILLER_0_27_137
*770 FILLER_0_27_149
*771 FILLER_0_27_15
*772 FILLER_0_27_161
*773 FILLER_0_27_167
*774 FILLER_0_27_169
*775 FILLER_0_27_181
*776 FILLER_0_27_193
*777 FILLER_0_27_205
*778 FILLER_0_27_217
*779 FILLER_0_27_223
*780 FILLER_0_27_225
*781 FILLER_0_27_237
*782 FILLER_0_27_249
*783 FILLER_0_27_261
*784 FILLER_0_27_27
*785 FILLER_0_27_273
*786 FILLER_0_27_279
*787 FILLER_0_27_281
*788 FILLER_0_27_293
*789 FILLER_0_27_3
*790 FILLER_0_27_305
*791 FILLER_0_27_317
*792 FILLER_0_27_329
*793 FILLER_0_27_335
*794 FILLER_0_27_337
*795 FILLER_0_27_349
*796 FILLER_0_27_39
*797 FILLER_0_27_51
*798 FILLER_0_27_55
*799 FILLER_0_27_57
*800 FILLER_0_27_69
*801 FILLER_0_27_81
*802 FILLER_0_27_93
*803 FILLER_0_28_109
*804 FILLER_0_28_121
*805 FILLER_0_28_133
*806 FILLER_0_28_139
*807 FILLER_0_28_141
*808 FILLER_0_28_15
*809 FILLER_0_28_153
*810 FILLER_0_28_165
*811 FILLER_0_28_177
*812 FILLER_0_28_189
*813 FILLER_0_28_195
*814 FILLER_0_28_197
*815 FILLER_0_28_209
*816 FILLER_0_28_221
*817 FILLER_0_28_233
*818 FILLER_0_28_245
*819 FILLER_0_28_251
*820 FILLER_0_28_253
*821 FILLER_0_28_265
*822 FILLER_0_28_27
*823 FILLER_0_28_277
*824 FILLER_0_28_289
*825 FILLER_0_28_29
*826 FILLER_0_28_3
*827 FILLER_0_28_301
*828 FILLER_0_28_307
*829 FILLER_0_28_309
*830 FILLER_0_28_321
*831 FILLER_0_28_333
*832 FILLER_0_28_345
*833 FILLER_0_28_41
*834 FILLER_0_28_53
*835 FILLER_0_28_65
*836 FILLER_0_28_77
*837 FILLER_0_28_83
*838 FILLER_0_28_85
*839 FILLER_0_28_97
*840 FILLER_0_29_105
*841 FILLER_0_29_111
*842 FILLER_0_29_113
*843 FILLER_0_29_125
*844 FILLER_0_29_137
*845 FILLER_0_29_149
*846 FILLER_0_29_15
*847 FILLER_0_29_161
*848 FILLER_0_29_167
*849 FILLER_0_29_169
*850 FILLER_0_29_181
*851 FILLER_0_29_193
*852 FILLER_0_29_205
*853 FILLER_0_29_217
*854 FILLER_0_29_223
*855 FILLER_0_29_225
*856 FILLER_0_29_237
*857 FILLER_0_29_249
*858 FILLER_0_29_261
*859 FILLER_0_29_27
*860 FILLER_0_29_273
*861 FILLER_0_29_279
*862 FILLER_0_29_281
*863 FILLER_0_29_293
*864 FILLER_0_29_3
*865 FILLER_0_29_305
*866 FILLER_0_29_317
*867 FILLER_0_29_329
*868 FILLER_0_29_335
*869 FILLER_0_29_337
*870 FILLER_0_29_349
*871 FILLER_0_29_39
*872 FILLER_0_29_51
*873 FILLER_0_29_55
*874 FILLER_0_29_57
*875 FILLER_0_29_69
*876 FILLER_0_29_81
*877 FILLER_0_29_93
*878 FILLER_0_2_109
*879 FILLER_0_2_121
*880 FILLER_0_2_133
*881 FILLER_0_2_139
*882 FILLER_0_2_141
*883 FILLER_0_2_15
*884 FILLER_0_2_153
*885 FILLER_0_2_165
*886 FILLER_0_2_177
*887 FILLER_0_2_189
*888 FILLER_0_2_195
*889 FILLER_0_2_197
*890 FILLER_0_2_209
*891 FILLER_0_2_221
*892 FILLER_0_2_233
*893 FILLER_0_2_245
*894 FILLER_0_2_251
*895 FILLER_0_2_253
*896 FILLER_0_2_265
*897 FILLER_0_2_27
*898 FILLER_0_2_277
*899 FILLER_0_2_289
*900 FILLER_0_2_29
*901 FILLER_0_2_3
*902 FILLER_0_2_301
*903 FILLER_0_2_307
*904 FILLER_0_2_309
*905 FILLER_0_2_321
*906 FILLER_0_2_333
*907 FILLER_0_2_345
*908 FILLER_0_2_41
*909 FILLER_0_2_53
*910 FILLER_0_2_65
*911 FILLER_0_2_77
*912 FILLER_0_2_83
*913 FILLER_0_2_85
*914 FILLER_0_2_97
*915 FILLER_0_30_109
*916 FILLER_0_30_121
*917 FILLER_0_30_133
*918 FILLER_0_30_139
*919 FILLER_0_30_141
*920 FILLER_0_30_15
*921 FILLER_0_30_153
*922 FILLER_0_30_165
*923 FILLER_0_30_177
*924 FILLER_0_30_189
*925 FILLER_0_30_195
*926 FILLER_0_30_197
*927 FILLER_0_30_209
*928 FILLER_0_30_221
*929 FILLER_0_30_233
*930 FILLER_0_30_245
*931 FILLER_0_30_251
*932 FILLER_0_30_253
*933 FILLER_0_30_265
*934 FILLER_0_30_27
*935 FILLER_0_30_277
*936 FILLER_0_30_289
*937 FILLER_0_30_29
*938 FILLER_0_30_3
*939 FILLER_0_30_301
*940 FILLER_0_30_307
*941 FILLER_0_30_309
*942 FILLER_0_30_321
*943 FILLER_0_30_333
*944 FILLER_0_30_345
*945 FILLER_0_30_41
*946 FILLER_0_30_53
*947 FILLER_0_30_65
*948 FILLER_0_30_77
*949 FILLER_0_30_83
*950 FILLER_0_30_85
*951 FILLER_0_30_97
*952 FILLER_0_31_105
*953 FILLER_0_31_111
*954 FILLER_0_31_113
*955 FILLER_0_31_125
*956 FILLER_0_31_137
*957 FILLER_0_31_149
*958 FILLER_0_31_15
*959 FILLER_0_31_161
*960 FILLER_0_31_167
*961 FILLER_0_31_169
*962 FILLER_0_31_181
*963 FILLER_0_31_193
*964 FILLER_0_31_205
*965 FILLER_0_31_217
*966 FILLER_0_31_223
*967 FILLER_0_31_225
*968 FILLER_0_31_237
*969 FILLER_0_31_249
*970 FILLER_0_31_261
*971 FILLER_0_31_27
*972 FILLER_0_31_273
*973 FILLER_0_31_279
*974 FILLER_0_31_281
*975 FILLER_0_31_293
*976 FILLER_0_31_3
*977 FILLER_0_31_305
*978 FILLER_0_31_317
*979 FILLER_0_31_329
*980 FILLER_0_31_335
*981 FILLER_0_31_337
*982 FILLER_0_31_349
*983 FILLER_0_31_39
*984 FILLER_0_31_51
*985 FILLER_0_31_55
*986 FILLER_0_31_57
*987 FILLER_0_31_69
*988 FILLER_0_31_81
*989 FILLER_0_31_93
*990 FILLER_0_32_109
*991 FILLER_0_32_121
*992 FILLER_0_32_133
*993 FILLER_0_32_139
*994 FILLER_0_32_141
*995 FILLER_0_32_15
*996 FILLER_0_32_153
*997 FILLER_0_32_165
*998 FILLER_0_32_177
*999 FILLER_0_32_189
*1000 FILLER_0_32_195
*1001 FILLER_0_32_197
*1002 FILLER_0_32_209
*1003 FILLER_0_32_221
*1004 FILLER_0_32_233
*1005 FILLER_0_32_245
*1006 FILLER_0_32_251
*1007 FILLER_0_32_253
*1008 FILLER_0_32_265
*1009 FILLER_0_32_27
*1010 FILLER_0_32_277
*1011 FILLER_0_32_289
*1012 FILLER_0_32_29
*1013 FILLER_0_32_3
*1014 FILLER_0_32_301
*1015 FILLER_0_32_307
*1016 FILLER_0_32_309
*1017 FILLER_0_32_321
*1018 FILLER_0_32_333
*1019 FILLER_0_32_345
*1020 FILLER_0_32_41
*1021 FILLER_0_32_53
*1022 FILLER_0_32_65
*1023 FILLER_0_32_77
*1024 FILLER_0_32_83
*1025 FILLER_0_32_85
*1026 FILLER_0_32_97
*1027 FILLER_0_33_105
*1028 FILLER_0_33_111
*1029 FILLER_0_33_113
*1030 FILLER_0_33_125
*1031 FILLER_0_33_137
*1032 FILLER_0_33_149
*1033 FILLER_0_33_15
*1034 FILLER_0_33_161
*1035 FILLER_0_33_167
*1036 FILLER_0_33_169
*1037 FILLER_0_33_181
*1038 FILLER_0_33_193
*1039 FILLER_0_33_205
*1040 FILLER_0_33_217
*1041 FILLER_0_33_223
*1042 FILLER_0_33_225
*1043 FILLER_0_33_237
*1044 FILLER_0_33_249
*1045 FILLER_0_33_261
*1046 FILLER_0_33_27
*1047 FILLER_0_33_273
*1048 FILLER_0_33_279
*1049 FILLER_0_33_281
*1050 FILLER_0_33_293
*1051 FILLER_0_33_3
*1052 FILLER_0_33_305
*1053 FILLER_0_33_317
*1054 FILLER_0_33_329
*1055 FILLER_0_33_335
*1056 FILLER_0_33_337
*1057 FILLER_0_33_349
*1058 FILLER_0_33_39
*1059 FILLER_0_33_51
*1060 FILLER_0_33_55
*1061 FILLER_0_33_57
*1062 FILLER_0_33_69
*1063 FILLER_0_33_81
*1064 FILLER_0_33_93
*1065 FILLER_0_34_109
*1066 FILLER_0_34_121
*1067 FILLER_0_34_133
*1068 FILLER_0_34_139
*1069 FILLER_0_34_141
*1070 FILLER_0_34_15
*1071 FILLER_0_34_153
*1072 FILLER_0_34_165
*1073 FILLER_0_34_177
*1074 FILLER_0_34_189
*1075 FILLER_0_34_195
*1076 FILLER_0_34_197
*1077 FILLER_0_34_209
*1078 FILLER_0_34_221
*1079 FILLER_0_34_233
*1080 FILLER_0_34_245
*1081 FILLER_0_34_251
*1082 FILLER_0_34_253
*1083 FILLER_0_34_265
*1084 FILLER_0_34_27
*1085 FILLER_0_34_277
*1086 FILLER_0_34_289
*1087 FILLER_0_34_29
*1088 FILLER_0_34_3
*1089 FILLER_0_34_301
*1090 FILLER_0_34_307
*1091 FILLER_0_34_309
*1092 FILLER_0_34_321
*1093 FILLER_0_34_333
*1094 FILLER_0_34_345
*1095 FILLER_0_34_41
*1096 FILLER_0_34_53
*1097 FILLER_0_34_65
*1098 FILLER_0_34_77
*1099 FILLER_0_34_83
*1100 FILLER_0_34_85
*1101 FILLER_0_34_97
*1102 FILLER_0_35_105
*1103 FILLER_0_35_111
*1104 FILLER_0_35_113
*1105 FILLER_0_35_125
*1106 FILLER_0_35_137
*1107 FILLER_0_35_149
*1108 FILLER_0_35_15
*1109 FILLER_0_35_161
*1110 FILLER_0_35_167
*1111 FILLER_0_35_169
*1112 FILLER_0_35_181
*1113 FILLER_0_35_193
*1114 FILLER_0_35_205
*1115 FILLER_0_35_217
*1116 FILLER_0_35_223
*1117 FILLER_0_35_225
*1118 FILLER_0_35_237
*1119 FILLER_0_35_249
*1120 FILLER_0_35_261
*1121 FILLER_0_35_27
*1122 FILLER_0_35_273
*1123 FILLER_0_35_279
*1124 FILLER_0_35_281
*1125 FILLER_0_35_293
*1126 FILLER_0_35_3
*1127 FILLER_0_35_305
*1128 FILLER_0_35_317
*1129 FILLER_0_35_329
*1130 FILLER_0_35_335
*1131 FILLER_0_35_337
*1132 FILLER_0_35_349
*1133 FILLER_0_35_39
*1134 FILLER_0_35_51
*1135 FILLER_0_35_55
*1136 FILLER_0_35_57
*1137 FILLER_0_35_69
*1138 FILLER_0_35_81
*1139 FILLER_0_35_93
*1140 FILLER_0_36_109
*1141 FILLER_0_36_121
*1142 FILLER_0_36_133
*1143 FILLER_0_36_139
*1144 FILLER_0_36_141
*1145 FILLER_0_36_15
*1146 FILLER_0_36_153
*1147 FILLER_0_36_165
*1148 FILLER_0_36_177
*1149 FILLER_0_36_189
*1150 FILLER_0_36_195
*1151 FILLER_0_36_197
*1152 FILLER_0_36_209
*1153 FILLER_0_36_221
*1154 FILLER_0_36_233
*1155 FILLER_0_36_245
*1156 FILLER_0_36_251
*1157 FILLER_0_36_253
*1158 FILLER_0_36_265
*1159 FILLER_0_36_27
*1160 FILLER_0_36_277
*1161 FILLER_0_36_289
*1162 FILLER_0_36_29
*1163 FILLER_0_36_3
*1164 FILLER_0_36_301
*1165 FILLER_0_36_307
*1166 FILLER_0_36_309
*1167 FILLER_0_36_321
*1168 FILLER_0_36_333
*1169 FILLER_0_36_345
*1170 FILLER_0_36_41
*1171 FILLER_0_36_53
*1172 FILLER_0_36_65
*1173 FILLER_0_36_77
*1174 FILLER_0_36_83
*1175 FILLER_0_36_85
*1176 FILLER_0_36_97
*1177 FILLER_0_37_105
*1178 FILLER_0_37_111
*1179 FILLER_0_37_113
*1180 FILLER_0_37_125
*1181 FILLER_0_37_137
*1182 FILLER_0_37_149
*1183 FILLER_0_37_15
*1184 FILLER_0_37_161
*1185 FILLER_0_37_167
*1186 FILLER_0_37_169
*1187 FILLER_0_37_181
*1188 FILLER_0_37_193
*1189 FILLER_0_37_205
*1190 FILLER_0_37_217
*1191 FILLER_0_37_223
*1192 FILLER_0_37_225
*1193 FILLER_0_37_237
*1194 FILLER_0_37_249
*1195 FILLER_0_37_261
*1196 FILLER_0_37_27
*1197 FILLER_0_37_273
*1198 FILLER_0_37_279
*1199 FILLER_0_37_281
*1200 FILLER_0_37_293
*1201 FILLER_0_37_3
*1202 FILLER_0_37_305
*1203 FILLER_0_37_317
*1204 FILLER_0_37_329
*1205 FILLER_0_37_335
*1206 FILLER_0_37_337
*1207 FILLER_0_37_349
*1208 FILLER_0_37_39
*1209 FILLER_0_37_51
*1210 FILLER_0_37_55
*1211 FILLER_0_37_57
*1212 FILLER_0_37_69
*1213 FILLER_0_37_81
*1214 FILLER_0_37_93
*1215 FILLER_0_38_104
*1216 FILLER_0_38_110
*1217 FILLER_0_38_116
*1218 FILLER_0_38_122
*1219 FILLER_0_38_128
*1220 FILLER_0_38_134
*1221 FILLER_0_38_141
*1222 FILLER_0_38_146
*1223 FILLER_0_38_15
*1224 FILLER_0_38_152
*1225 FILLER_0_38_158
*1226 FILLER_0_38_169
*1227 FILLER_0_38_175
*1228 FILLER_0_38_181
*1229 FILLER_0_38_186
*1230 FILLER_0_38_192
*1231 FILLER_0_38_205
*1232 FILLER_0_38_217
*1233 FILLER_0_38_223
*1234 FILLER_0_38_225
*1235 FILLER_0_38_237
*1236 FILLER_0_38_245
*1237 FILLER_0_38_253
*1238 FILLER_0_38_27
*1239 FILLER_0_38_273
*1240 FILLER_0_38_278
*1241 FILLER_0_38_281
*1242 FILLER_0_38_29
*1243 FILLER_0_38_293
*1244 FILLER_0_38_297
*1245 FILLER_0_38_3
*1246 FILLER_0_38_302
*1247 FILLER_0_38_309
*1248 FILLER_0_38_321
*1249 FILLER_0_38_333
*1250 FILLER_0_38_337
*1251 FILLER_0_38_349
*1252 FILLER_0_38_41
*1253 FILLER_0_38_53
*1254 FILLER_0_38_57
*1255 FILLER_0_38_68
*1256 FILLER_0_38_74
*1257 FILLER_0_38_80
*1258 FILLER_0_38_88
*1259 FILLER_0_38_92
*1260 FILLER_0_38_98
*1261 FILLER_0_3_105
*1262 FILLER_0_3_111
*1263 FILLER_0_3_113
*1264 FILLER_0_3_125
*1265 FILLER_0_3_137
*1266 FILLER_0_3_149
*1267 FILLER_0_3_15
*1268 FILLER_0_3_161
*1269 FILLER_0_3_167
*1270 FILLER_0_3_169
*1271 FILLER_0_3_181
*1272 FILLER_0_3_193
*1273 FILLER_0_3_205
*1274 FILLER_0_3_217
*1275 FILLER_0_3_223
*1276 FILLER_0_3_225
*1277 FILLER_0_3_237
*1278 FILLER_0_3_249
*1279 FILLER_0_3_261
*1280 FILLER_0_3_27
*1281 FILLER_0_3_273
*1282 FILLER_0_3_279
*1283 FILLER_0_3_281
*1284 FILLER_0_3_293
*1285 FILLER_0_3_3
*1286 FILLER_0_3_305
*1287 FILLER_0_3_317
*1288 FILLER_0_3_329
*1289 FILLER_0_3_335
*1290 FILLER_0_3_337
*1291 FILLER_0_3_349
*1292 FILLER_0_3_39
*1293 FILLER_0_3_51
*1294 FILLER_0_3_55
*1295 FILLER_0_3_57
*1296 FILLER_0_3_69
*1297 FILLER_0_3_81
*1298 FILLER_0_3_93
*1299 FILLER_0_4_109
*1300 FILLER_0_4_121
*1301 FILLER_0_4_133
*1302 FILLER_0_4_139
*1303 FILLER_0_4_141
*1304 FILLER_0_4_15
*1305 FILLER_0_4_153
*1306 FILLER_0_4_165
*1307 FILLER_0_4_177
*1308 FILLER_0_4_189
*1309 FILLER_0_4_195
*1310 FILLER_0_4_197
*1311 FILLER_0_4_209
*1312 FILLER_0_4_221
*1313 FILLER_0_4_233
*1314 FILLER_0_4_245
*1315 FILLER_0_4_251
*1316 FILLER_0_4_253
*1317 FILLER_0_4_265
*1318 FILLER_0_4_27
*1319 FILLER_0_4_277
*1320 FILLER_0_4_289
*1321 FILLER_0_4_29
*1322 FILLER_0_4_3
*1323 FILLER_0_4_301
*1324 FILLER_0_4_307
*1325 FILLER_0_4_309
*1326 FILLER_0_4_321
*1327 FILLER_0_4_333
*1328 FILLER_0_4_345
*1329 FILLER_0_4_41
*1330 FILLER_0_4_53
*1331 FILLER_0_4_65
*1332 FILLER_0_4_77
*1333 FILLER_0_4_83
*1334 FILLER_0_4_85
*1335 FILLER_0_4_97
*1336 FILLER_0_5_105
*1337 FILLER_0_5_111
*1338 FILLER_0_5_113
*1339 FILLER_0_5_125
*1340 FILLER_0_5_137
*1341 FILLER_0_5_149
*1342 FILLER_0_5_15
*1343 FILLER_0_5_161
*1344 FILLER_0_5_167
*1345 FILLER_0_5_169
*1346 FILLER_0_5_181
*1347 FILLER_0_5_193
*1348 FILLER_0_5_205
*1349 FILLER_0_5_217
*1350 FILLER_0_5_223
*1351 FILLER_0_5_225
*1352 FILLER_0_5_237
*1353 FILLER_0_5_249
*1354 FILLER_0_5_261
*1355 FILLER_0_5_27
*1356 FILLER_0_5_273
*1357 FILLER_0_5_279
*1358 FILLER_0_5_281
*1359 FILLER_0_5_293
*1360 FILLER_0_5_3
*1361 FILLER_0_5_305
*1362 FILLER_0_5_317
*1363 FILLER_0_5_329
*1364 FILLER_0_5_335
*1365 FILLER_0_5_337
*1366 FILLER_0_5_349
*1367 FILLER_0_5_39
*1368 FILLER_0_5_51
*1369 FILLER_0_5_55
*1370 FILLER_0_5_57
*1371 FILLER_0_5_69
*1372 FILLER_0_5_81
*1373 FILLER_0_5_93
*1374 FILLER_0_6_109
*1375 FILLER_0_6_121
*1376 FILLER_0_6_133
*1377 FILLER_0_6_139
*1378 FILLER_0_6_141
*1379 FILLER_0_6_15
*1380 FILLER_0_6_153
*1381 FILLER_0_6_165
*1382 FILLER_0_6_177
*1383 FILLER_0_6_189
*1384 FILLER_0_6_195
*1385 FILLER_0_6_197
*1386 FILLER_0_6_209
*1387 FILLER_0_6_221
*1388 FILLER_0_6_233
*1389 FILLER_0_6_245
*1390 FILLER_0_6_251
*1391 FILLER_0_6_253
*1392 FILLER_0_6_265
*1393 FILLER_0_6_27
*1394 FILLER_0_6_277
*1395 FILLER_0_6_289
*1396 FILLER_0_6_29
*1397 FILLER_0_6_3
*1398 FILLER_0_6_301
*1399 FILLER_0_6_307
*1400 FILLER_0_6_309
*1401 FILLER_0_6_321
*1402 FILLER_0_6_333
*1403 FILLER_0_6_345
*1404 FILLER_0_6_41
*1405 FILLER_0_6_53
*1406 FILLER_0_6_65
*1407 FILLER_0_6_77
*1408 FILLER_0_6_83
*1409 FILLER_0_6_85
*1410 FILLER_0_6_97
*1411 FILLER_0_7_105
*1412 FILLER_0_7_111
*1413 FILLER_0_7_113
*1414 FILLER_0_7_125
*1415 FILLER_0_7_137
*1416 FILLER_0_7_149
*1417 FILLER_0_7_15
*1418 FILLER_0_7_161
*1419 FILLER_0_7_167
*1420 FILLER_0_7_169
*1421 FILLER_0_7_181
*1422 FILLER_0_7_193
*1423 FILLER_0_7_205
*1424 FILLER_0_7_217
*1425 FILLER_0_7_223
*1426 FILLER_0_7_225
*1427 FILLER_0_7_237
*1428 FILLER_0_7_249
*1429 FILLER_0_7_261
*1430 FILLER_0_7_27
*1431 FILLER_0_7_273
*1432 FILLER_0_7_279
*1433 FILLER_0_7_281
*1434 FILLER_0_7_293
*1435 FILLER_0_7_3
*1436 FILLER_0_7_305
*1437 FILLER_0_7_317
*1438 FILLER_0_7_329
*1439 FILLER_0_7_335
*1440 FILLER_0_7_337
*1441 FILLER_0_7_349
*1442 FILLER_0_7_39
*1443 FILLER_0_7_51
*1444 FILLER_0_7_55
*1445 FILLER_0_7_57
*1446 FILLER_0_7_69
*1447 FILLER_0_7_81
*1448 FILLER_0_7_93
*1449 FILLER_0_8_109
*1450 FILLER_0_8_121
*1451 FILLER_0_8_133
*1452 FILLER_0_8_139
*1453 FILLER_0_8_141
*1454 FILLER_0_8_15