*SPEF "ieee 1481-1999"
*DESIGN "tt_um_wrapper_inputblackboxoutput"
*DATE "11:11:11 Fri 11 11, 1111"
*VENDOR "OpenRCX"
*PROGRAM "Parallel Extraction"
*VERSION "1.0"
*DESIGN_FLOW "NAME_SCOPE LOCAL" "PIN_CAP NONE"
*DIVIDER /
*DELIMITER :
*BUS_DELIMITER []
*T_UNIT 1 NS
*C_UNIT 1 PF
*R_UNIT 1 OHM
*L_UNIT 1 HENRY

*NAME_MAP
*3 clk
*4 ena
*5 rst_n
*6 ui_in[0]
*7 ui_in[1]
*8 ui_in[2]
*9 ui_in[3]
*10 ui_in[4]
*11 ui_in[5]
*12 ui_in[6]
*13 ui_in[7]
*14 uio_in[0]
*15 uio_in[1]
*16 uio_in[2]
*17 uio_in[3]
*18 uio_in[4]
*19 uio_in[5]
*20 uio_in[6]
*21 uio_in[7]
*22 net15
*23 net16
*24 net17
*25 net18
*26 net19
*27 net20
*28 net21
*29 net22
*30 uio_out[0]
*31 uio_out[1]
*32 uio_out[2]
*33 uio_out[3]
*34 uio_out[4]
*35 net23
*36 uio_out[6]
*37 uio_out[7]
*38 uo_out[0]
*39 uo_out[1]
*40 uo_out[2]
*41 uo_out[3]
*42 uo_out[4]
*43 uo_out[5]
*44 uo_out[6]
*45 uo_out[7]
*46 _000_
*47 _001_
*48 _002_
*49 _003_
*50 _004_
*51 _005_
*52 _006_
*53 _007_
*54 _008_
*55 _009_
*56 _010_
*57 _011_
*58 _012_
*59 _013_
*60 _014_
*61 _015_
*62 _016_
*63 _017_
*64 _018_
*65 _019_
*66 _020_
*67 _021_
*68 _022_
*69 _023_
*70 _024_
*71 _025_
*72 _026_
*73 _027_
*74 _028_
*75 _029_
*76 _030_
*77 _031_
*78 _032_
*79 _033_
*80 _034_
*81 _035_
*82 _036_
*83 _037_
*84 _038_
*85 _039_
*86 _040_
*87 _041_
*88 _042_
*89 _043_
*90 _044_
*91 _045_
*92 _046_
*93 _047_
*94 _048_
*95 _049_
*96 _050_
*97 _051_
*98 _052_
*99 _053_
*100 _054_
*101 _055_
*102 _056_
*103 _057_
*104 _058_
*105 _059_
*106 _060_
*107 _061_
*108 _062_
*109 _063_
*110 _064_
*111 _065_
*112 _066_
*113 _067_
*114 _068_
*115 _069_
*116 _070_
*117 _071_
*118 _072_
*119 _073_
*120 _074_
*121 _075_
*122 _076_
*123 _077_
*124 _078_
*125 _079_
*126 _080_
*127 _081_
*128 _082_
*129 _083_
*130 _084_
*131 _085_
*132 _086_
*133 _087_
*134 _088_
*135 _089_
*136 _090_
*137 _091_
*138 _092_
*139 _093_
*140 _094_
*141 _095_
*142 _096_
*143 _097_
*144 _098_
*145 _099_
*146 _100_
*147 _101_
*148 _102_
*149 _103_
*150 _104_
*151 _105_
*152 _106_
*153 _107_
*154 _108_
*155 _109_
*156 _110_
*157 _111_
*158 _112_
*159 _113_
*160 _114_
*161 _115_
*162 _116_
*163 _117_
*164 _118_
*165 _119_
*166 _120_
*167 _121_
*168 _122_
*169 _123_
*170 _124_
*171 _125_
*172 _126_
*173 _127_
*174 _128_
*175 _129_
*176 _130_
*177 _131_
*178 _132_
*179 _133_
*180 _134_
*181 _135_
*182 _136_
*183 _137_
*184 _138_
*185 _139_
*186 _140_
*187 _141_
*188 _142_
*189 _143_
*190 _144_
*191 _145_
*192 _146_
*193 _147_
*194 _148_
*195 _149_
*196 _150_
*197 _151_
*198 _152_
*199 _153_
*200 _154_
*201 _155_
*202 _156_
*203 _157_
*204 _158_
*205 _159_
*206 _160_
*207 _161_
*208 _162_
*209 _163_
*210 _164_
*211 _165_
*212 _166_
*213 _167_
*214 _168_
*215 _169_
*216 _170_
*217 _171_
*218 _172_
*219 _173_
*220 _174_
*221 _175_
*222 _176_
*223 _177_
*224 _178_
*225 _179_
*226 _180_
*227 _181_
*228 _182_
*229 _183_
*230 _184_
*231 _185_
*232 _186_
*233 _187_
*234 _188_
*235 _189_
*236 _190_
*237 _191_
*238 _192_
*239 _193_
*240 _194_
*241 _195_
*242 _196_
*243 _197_
*244 _198_
*245 _199_
*246 _200_
*247 _201_
*248 _202_
*249 _203_
*250 _204_
*251 _205_
*252 _206_
*253 _207_
*254 _208_
*255 _209_
*256 _210_
*257 _211_
*258 _212_
*259 _213_
*260 _214_
*261 _215_
*262 _216_
*263 _217_
*264 _218_
*265 _219_
*266 _220_
*267 _221_
*268 _222_
*269 _223_
*270 _224_
*271 _225_
*272 _226_
*273 _227_
*274 _228_
*275 _229_
*276 _230_
*277 _231_
*278 _232_
*279 _233_
*280 _234_
*281 _235_
*282 _236_
*283 _237_
*284 _238_
*285 _239_
*286 _240_
*287 _241_
*288 _242_
*289 _243_
*290 _244_
*291 _245_
*292 _246_
*293 _247_
*294 _248_
*295 _249_
*296 _250_
*297 _251_
*298 _252_
*299 _253_
*300 _254_
*301 _255_
*302 _256_
*303 _257_
*304 _258_
*305 _259_
*306 _260_
*307 _261_
*308 _262_
*309 _263_
*310 _264_
*311 _265_
*312 _266_
*313 _267_
*314 _268_
*315 c\.accumulator\[0\]
*316 c\.accumulator\[1\]
*317 c\.accumulator\[2\]
*318 c\.accumulator\[3\]
*319 c\.accumulator\[4\]
*320 c\.accumulator\[5\]
*321 c\.accumulator\[6\]
*322 c\.accumulator\[7\]
*323 c\.flag_n
*324 c\.flag_p
*325 c\.halt
*326 c\.jump_amt\[0\]
*327 c\.jump_amt\[1\]
*328 c\.jump_amt\[2\]
*329 c\.jump_n
*330 c\.jump_p
*331 c\.opcode\[0\]
*332 c\.opcode\[1\]
*333 c\.opcode\[2\]
*334 c\.pc\[0\]
*335 c\.pc\[1\]
*336 c\.pc\[2\]
*337 c\.pc\[3\]
*338 c\.pc\[4\]
*339 c\.shift_a
*340 c\.shift_amt\[0\]
*341 c\.shift_amt\[1\]
*342 c\.shift_amt\[2\]
*343 c\.shift_l
*344 c\.state\[0\]
*345 c\.state\[1\]
*346 c\.state\[2\]
*347 c\.state\[3\]
*348 c\.we
*349 clknet_0_clk
*350 clknet_1_0__leaf_clk
*351 clknet_1_1__leaf_clk
*352 net1
*353 net10
*354 net11
*355 net12
*356 net13
*357 net14
*358 net2
*359 net3
*360 net4
*361 net5
*362 net6
*363 net7
*364 net8
*365 net9
*366 FILLER_0_0_109
*367 FILLER_0_0_113
*368 FILLER_0_0_125
*369 FILLER_0_0_137
*370 FILLER_0_0_141
*371 FILLER_0_0_15
*372 FILLER_0_0_153
*373 FILLER_0_0_165
*374 FILLER_0_0_169
*375 FILLER_0_0_181
*376 FILLER_0_0_193
*377 FILLER_0_0_197
*378 FILLER_0_0_209
*379 FILLER_0_0_221
*380 FILLER_0_0_225
*381 FILLER_0_0_237
*382 FILLER_0_0_249
*383 FILLER_0_0_253
*384 FILLER_0_0_265
*385 FILLER_0_0_27
*386 FILLER_0_0_277
*387 FILLER_0_0_281
*388 FILLER_0_0_29
*389 FILLER_0_0_293
*390 FILLER_0_0_3
*391 FILLER_0_0_305
*392 FILLER_0_0_309
*393 FILLER_0_0_321
*394 FILLER_0_0_333
*395 FILLER_0_0_337
*396 FILLER_0_0_349
*397 FILLER_0_0_41
*398 FILLER_0_0_53
*399 FILLER_0_0_57
*400 FILLER_0_0_69
*401 FILLER_0_0_81
*402 FILLER_0_0_85
*403 FILLER_0_0_97
*404 FILLER_0_10_109
*405 FILLER_0_10_121
*406 FILLER_0_10_133
*407 FILLER_0_10_139
*408 FILLER_0_10_141
*409 FILLER_0_10_15
*410 FILLER_0_10_153
*411 FILLER_0_10_165
*412 FILLER_0_10_177
*413 FILLER_0_10_189
*414 FILLER_0_10_195
*415 FILLER_0_10_197
*416 FILLER_0_10_209
*417 FILLER_0_10_221
*418 FILLER_0_10_233
*419 FILLER_0_10_245
*420 FILLER_0_10_251
*421 FILLER_0_10_253
*422 FILLER_0_10_265
*423 FILLER_0_10_27
*424 FILLER_0_10_277
*425 FILLER_0_10_289
*426 FILLER_0_10_29
*427 FILLER_0_10_3
*428 FILLER_0_10_301
*429 FILLER_0_10_307
*430 FILLER_0_10_309
*431 FILLER_0_10_321
*432 FILLER_0_10_333
*433 FILLER_0_10_345
*434 FILLER_0_10_41
*435 FILLER_0_10_53
*436 FILLER_0_10_65
*437 FILLER_0_10_77
*438 FILLER_0_10_83
*439 FILLER_0_10_85
*440 FILLER_0_10_97
*441 FILLER_0_11_105
*442 FILLER_0_11_111
*443 FILLER_0_11_113
*444 FILLER_0_11_125
*445 FILLER_0_11_137
*446 FILLER_0_11_149
*447 FILLER_0_11_15
*448 FILLER_0_11_161
*449 FILLER_0_11_167
*450 FILLER_0_11_169
*451 FILLER_0_11_181
*452 FILLER_0_11_193
*453 FILLER_0_11_205
*454 FILLER_0_11_217
*455 FILLER_0_11_223
*456 FILLER_0_11_225
*457 FILLER_0_11_237
*458 FILLER_0_11_249
*459 FILLER_0_11_261
*460 FILLER_0_11_27
*461 FILLER_0_11_273
*462 FILLER_0_11_279
*463 FILLER_0_11_281
*464 FILLER_0_11_293
*465 FILLER_0_11_3
*466 FILLER_0_11_305
*467 FILLER_0_11_317
*468 FILLER_0_11_329
*469 FILLER_0_11_335
*470 FILLER_0_11_337
*471 FILLER_0_11_349
*472 FILLER_0_11_39
*473 FILLER_0_11_51
*474 FILLER_0_11_55
*475 FILLER_0_11_57
*476 FILLER_0_11_69
*477 FILLER_0_11_81
*478 FILLER_0_11_93
*479 FILLER_0_12_109
*480 FILLER_0_12_121
*481 FILLER_0_12_133
*482 FILLER_0_12_139
*483 FILLER_0_12_141
*484 FILLER_0_12_15
*485 FILLER_0_12_153
*486 FILLER_0_12_165
*487 FILLER_0_12_177
*488 FILLER_0_12_189
*489 FILLER_0_12_195
*490 FILLER_0_12_197
*491 FILLER_0_12_209
*492 FILLER_0_12_221
*493 FILLER_0_12_233
*494 FILLER_0_12_245
*495 FILLER_0_12_251
*496 FILLER_0_12_253
*497 FILLER_0_12_265
*498 FILLER_0_12_27
*499 FILLER_0_12_277
*500 FILLER_0_12_289
*501 FILLER_0_12_29
*502 FILLER_0_12_3
*503 FILLER_0_12_301
*504 FILLER_0_12_307
*505 FILLER_0_12_309
*506 FILLER_0_12_321
*507 FILLER_0_12_333
*508 FILLER_0_12_345
*509 FILLER_0_12_41
*510 FILLER_0_12_53
*511 FILLER_0_12_65
*512 FILLER_0_12_77
*513 FILLER_0_12_83
*514 FILLER_0_12_85
*515 FILLER_0_12_97
*516 FILLER_0_13_105
*517 FILLER_0_13_111
*518 FILLER_0_13_113
*519 FILLER_0_13_125
*520 FILLER_0_13_137
*521 FILLER_0_13_149
*522 FILLER_0_13_15
*523 FILLER_0_13_161
*524 FILLER_0_13_167
*525 FILLER_0_13_169
*526 FILLER_0_13_181
*527 FILLER_0_13_193
*528 FILLER_0_13_205
*529 FILLER_0_13_217
*530 FILLER_0_13_223
*531 FILLER_0_13_225
*532 FILLER_0_13_237
*533 FILLER_0_13_249
*534 FILLER_0_13_261
*535 FILLER_0_13_27
*536 FILLER_0_13_273
*537 FILLER_0_13_279
*538 FILLER_0_13_281
*539 FILLER_0_13_293
*540 FILLER_0_13_3
*541 FILLER_0_13_305
*542 FILLER_0_13_317
*543 FILLER_0_13_329
*544 FILLER_0_13_335
*545 FILLER_0_13_337
*546 FILLER_0_13_349
*547 FILLER_0_13_39
*548 FILLER_0_13_51
*549 FILLER_0_13_55
*550 FILLER_0_13_57
*551 FILLER_0_13_69
*552 FILLER_0_13_81
*553 FILLER_0_13_93
*554 FILLER_0_14_109
*555 FILLER_0_14_121
*556 FILLER_0_14_133
*557 FILLER_0_14_139
*558 FILLER_0_14_141
*559 FILLER_0_14_15
*560 FILLER_0_14_153
*561 FILLER_0_14_165
*562 FILLER_0_14_177
*563 FILLER_0_14_189
*564 FILLER_0_14_195
*565 FILLER_0_14_197
*566 FILLER_0_14_209
*567 FILLER_0_14_221
*568 FILLER_0_14_233
*569 FILLER_0_14_245
*570 FILLER_0_14_251
*571 FILLER_0_14_253
*572 FILLER_0_14_265
*573 FILLER_0_14_27
*574 FILLER_0_14_277
*575 FILLER_0_14_289
*576 FILLER_0_14_29
*577 FILLER_0_14_3
*578 FILLER_0_14_301
*579 FILLER_0_14_307
*580 FILLER_0_14_309
*581 FILLER_0_14_321
*582 FILLER_0_14_333
*583 FILLER_0_14_345
*584 FILLER_0_14_41
*585 FILLER_0_14_53
*586 FILLER_0_14_65
*587 FILLER_0_14_77
*588 FILLER_0_14_83
*589 FILLER_0_14_85
*590 FILLER_0_14_97
*591 FILLER_0_15_105
*592 FILLER_0_15_111
*593 FILLER_0_15_113
*594 FILLER_0_15_125
*595 FILLER_0_15_137
*596 FILLER_0_15_149
*597 FILLER_0_15_15
*598 FILLER_0_15_161
*599 FILLER_0_15_167
*600 FILLER_0_15_169
*601 FILLER_0_15_181
*602 FILLER_0_15_193
*603 FILLER_0_15_205
*604 FILLER_0_15_217
*605 FILLER_0_15_223
*606 FILLER_0_15_225
*607 FILLER_0_15_237
*608 FILLER_0_15_249
*609 FILLER_0_15_261
*610 FILLER_0_15_27
*611 FILLER_0_15_273
*612 FILLER_0_15_279
*613 FILLER_0_15_281
*614 FILLER_0_15_293
*615 FILLER_0_15_3
*616 FILLER_0_15_305
*617 FILLER_0_15_317
*618 FILLER_0_15_329
*619 FILLER_0_15_335
*620 FILLER_0_15_337
*621 FILLER_0_15_349
*622 FILLER_0_15_39
*623 FILLER_0_15_51
*624 FILLER_0_15_55
*625 FILLER_0_15_57
*626 FILLER_0_15_69
*627 FILLER_0_15_81
*628 FILLER_0_15_93
*629 FILLER_0_16_109
*630 FILLER_0_16_121
*631 FILLER_0_16_133
*632 FILLER_0_16_139
*633 FILLER_0_16_141
*634 FILLER_0_16_15
*635 FILLER_0_16_153
*636 FILLER_0_16_165
*637 FILLER_0_16_177
*638 FILLER_0_16_189
*639 FILLER_0_16_195
*640 FILLER_0_16_197
*641 FILLER_0_16_209
*642 FILLER_0_16_221
*643 FILLER_0_16_233
*644 FILLER_0_16_245
*645 FILLER_0_16_251
*646 FILLER_0_16_253
*647 FILLER_0_16_265
*648 FILLER_0_16_27
*649 FILLER_0_16_277
*650 FILLER_0_16_289
*651 FILLER_0_16_29
*652 FILLER_0_16_3
*653 FILLER_0_16_301
*654 FILLER_0_16_307
*655 FILLER_0_16_309
*656 FILLER_0_16_321
*657 FILLER_0_16_333
*658 FILLER_0_16_345
*659 FILLER_0_16_41
*660 FILLER_0_16_53
*661 FILLER_0_16_65
*662 FILLER_0_16_77
*663 FILLER_0_16_83
*664 FILLER_0_16_85
*665 FILLER_0_16_97
*666 FILLER_0_17_105
*667 FILLER_0_17_111
*668 FILLER_0_17_113
*669 FILLER_0_17_125
*670 FILLER_0_17_137
*671 FILLER_0_17_149
*672 FILLER_0_17_15
*673 FILLER_0_17_161
*674 FILLER_0_17_167
*675 FILLER_0_17_169
*676 FILLER_0_17_181
*677 FILLER_0_17_193
*678 FILLER_0_17_205
*679 FILLER_0_17_217
*680 FILLER_0_17_223
*681 FILLER_0_17_225
*682 FILLER_0_17_237
*683 FILLER_0_17_249
*684 FILLER_0_17_261
*685 FILLER_0_17_27
*686 FILLER_0_17_273
*687 FILLER_0_17_279
*688 FILLER_0_17_281
*689 FILLER_0_17_293
*690 FILLER_0_17_3
*691 FILLER_0_17_305
*692 FILLER_0_17_317
*693 FILLER_0_17_329
*694 FILLER_0_17_335
*695 FILLER_0_17_337
*696 FILLER_0_17_349
*697 FILLER_0_17_39
*698 FILLER_0_17_51
*699 FILLER_0_17_55
*700 FILLER_0_17_57
*701 FILLER_0_17_69
*702 FILLER_0_17_81
*703 FILLER_0_17_93
*704 FILLER_0_18_109
*705 FILLER_0_18_121
*706 FILLER_0_18_133
*707 FILLER_0_18_139
*708 FILLER_0_18_141
*709 FILLER_0_18_15
*710 FILLER_0_18_153
*711 FILLER_0_18_165
*712 FILLER_0_18_177
*713 FILLER_0_18_189
*714 FILLER_0_18_195
*715 FILLER_0_18_197
*716 FILLER_0_18_209
*717 FILLER_0_18_221
*718 FILLER_0_18_233
*719 FILLER_0_18_245
*720 FILLER_0_18_251
*721 FILLER_0_18_253
*722 FILLER_0_18_265
*723 FILLER_0_18_27
*724 FILLER_0_18_277
*725 FILLER_0_18_289
*726 FILLER_0_18_29
*727 FILLER_0_18_3
*728 FILLER_0_18_301
*729 FILLER_0_18_307
*730 FILLER_0_18_309
*731 FILLER_0_18_321
*732 FILLER_0_18_333
*733 FILLER_0_18_345
*734 FILLER_0_18_41
*735 FILLER_0_18_53
*736 FILLER_0_18_65
*737 FILLER_0_18_77
*738 FILLER_0_18_83
*739 FILLER_0_18_85
*740 FILLER_0_18_97
*741 FILLER_0_19_105
*742 FILLER_0_19_111
*743 FILLER_0_19_113
*744 FILLER_0_19_125
*745 FILLER_0_19_137
*746 FILLER_0_19_149
*747 FILLER_0_19_15
*748 FILLER_0_19_161
*749 FILLER_0_19_167
*750 FILLER_0_19_169
*751 FILLER_0_19_181
*752 FILLER_0_19_193
*753 FILLER_0_19_205
*754 FILLER_0_19_217
*755 FILLER_0_19_223
*756 FILLER_0_19_225
*757 FILLER_0_19_237
*758 FILLER_0_19_249
*759 FILLER_0_19_261
*760 FILLER_0_19_27
*761 FILLER_0_19_273
*762 FILLER_0_19_279
*763 FILLER_0_19_281
*764 FILLER_0_19_293
*765 FILLER_0_19_3
*766 FILLER_0_19_305
*767 FILLER_0_19_317
*768 FILLER_0_19_329
*769 FILLER_0_19_335
*770 FILLER_0_19_337
*771 FILLER_0_19_349
*772 FILLER_0_19_39
*773 FILLER_0_19_51
*774 FILLER_0_19_55
*775 FILLER_0_19_57
*776 FILLER_0_19_69
*777 FILLER_0_19_81
*778 FILLER_0_19_93
*779 FILLER_0_1_105
*780 FILLER_0_1_111
*781 FILLER_0_1_113
*782 FILLER_0_1_125
*783 FILLER_0_1_137
*784 FILLER_0_1_149
*785 FILLER_0_1_15
*786 FILLER_0_1_161
*787 FILLER_0_1_167
*788 FILLER_0_1_169
*789 FILLER_0_1_181
*790 FILLER_0_1_193
*791 FILLER_0_1_205
*792 FILLER_0_1_217
*793 FILLER_0_1_223
*794 FILLER_0_1_225
*795 FILLER_0_1_237
*796 FILLER_0_1_249
*797 FILLER_0_1_261
*798 FILLER_0_1_27
*799 FILLER_0_1_273
*800 FILLER_0_1_279
*801 FILLER_0_1_281
*802 FILLER_0_1_293
*803 FILLER_0_1_3
*804 FILLER_0_1_305
*805 FILLER_0_1_317
*806 FILLER_0_1_329
*807 FILLER_0_1_335
*808 FILLER_0_1_337
*809 FILLER_0_1_349
*810 FILLER_0_1_39
*811 FILLER_0_1_51
*812 FILLER_0_1_55
*813 FILLER_0_1_57
*814 FILLER_0_1_69
*815 FILLER_0_1_81
*816 FILLER_0_1_93
*817 FILLER_0_20_109
*818 FILLER_0_20_121
*819 FILLER_0_20_133
*820 FILLER_0_20_139
*821 FILLER_0_20_141
*822 FILLER_0_20_15
*823 FILLER_0_20_153
*824 FILLER_0_20_165
*825 FILLER_0_20_177
*826 FILLER_0_20_189
*827 FILLER_0_20_195
*828 FILLER_0_20_197
*829 FILLER_0_20_209
*830 FILLER_0_20_221
*831 FILLER_0_20_233
*832 FILLER_0_20_245
*833 FILLER_0_20_251
*834 FILLER_0_20_253
*835 FILLER_0_20_265
*836 FILLER_0_20_27
*837 FILLER_0_20_277
*838 FILLER_0_20_289
*839 FILLER_0_20_29
*840 FILLER_0_20_3
*841 FILLER_0_20_301
*842 FILLER_0_20_307
*843 FILLER_0_20_309
*844 FILLER_0_20_321
*845 FILLER_0_20_333
*846 FILLER_0_20_345
*847 FILLER_0_20_41
*848 FILLER_0_20_53
*849 FILLER_0_20_65
*850 FILLER_0_20_77
*851 FILLER_0_20_83
*852 FILLER_0_20_85
*853 FILLER_0_20_97
*854 FILLER_0_21_105
*855 FILLER_0_21_111
*856 FILLER_0_21_113
*857 FILLER_0_21_117
*858 FILLER_0_21_122
*859 FILLER_0_21_130
*860 FILLER_0_21_140
*861 FILLER_0_21_15
*862 FILLER_0_21_161
*863 FILLER_0_21_167
*864 FILLER_0_21_169
*865 FILLER_0_21_177
*866 FILLER_0_21_189
*867 FILLER_0_21_201
*868 FILLER_0_21_208
*869 FILLER_0_21_220
*870 FILLER_0_21_225
*871 FILLER_0_21_237
*872 FILLER_0_21_249
*873 FILLER_0_21_261
*874 FILLER_0_21_27
*875 FILLER_0_21_273
*876 FILLER_0_21_279
*877 FILLER_0_21_281
*878 FILLER_0_21_293
*879 FILLER_0_21_3
*880 FILLER_0_21_305
*881 FILLER_0_21_317
*882 FILLER_0_21_329
*883 FILLER_0_21_335
*884 FILLER_0_21_337
*885 FILLER_0_21_349
*886 FILLER_0_21_39
*887 FILLER_0_21_51
*888 FILLER_0_21_55
*889 FILLER_0_21_57
*890 FILLER_0_21_69
*891 FILLER_0_21_81
*892 FILLER_0_21_93
*893 FILLER_0_22_106
*894 FILLER_0_22_139
*895 FILLER_0_22_141
*896 FILLER_0_22_146
*897 FILLER_0_22_15
*898 FILLER_0_22_152
*899 FILLER_0_22_156
*900 FILLER_0_22_166
*901 FILLER_0_22_183
*902 FILLER_0_22_194
*903 FILLER_0_22_197
*904 FILLER_0_22_201
*905 FILLER_0_22_217
*906 FILLER_0_22_229
*907 FILLER_0_22_241
*908 FILLER_0_22_249
*909 FILLER_0_22_253
*910 FILLER_0_22_265
*911 FILLER_0_22_27
*912 FILLER_0_22_277
*913 FILLER_0_22_289
*914 FILLER_0_22_29
*915 FILLER_0_22_3
*916 FILLER_0_22_301
*917 FILLER_0_22_307
*918 FILLER_0_22_309
*919 FILLER_0_22_321
*920 FILLER_0_22_333
*921 FILLER_0_22_345
*922 FILLER_0_22_41
*923 FILLER_0_22_53
*924 FILLER_0_22_65
*925 FILLER_0_22_77
*926 FILLER_0_23_107
*927 FILLER_0_23_111
*928 FILLER_0_23_113
*929 FILLER_0_23_121
*930 FILLER_0_23_126
*931 FILLER_0_23_134
*932 FILLER_0_23_140
*933 FILLER_0_23_148
*934 FILLER_0_23_15
*935 FILLER_0_23_157
*936 FILLER_0_23_165
*937 FILLER_0_23_169
*938 FILLER_0_23_173
*939 FILLER_0_23_185
*940 FILLER_0_23_193
*941 FILLER_0_23_205
*942 FILLER_0_23_217
*943 FILLER_0_23_223
*944 FILLER_0_23_225
*945 FILLER_0_23_237
*946 FILLER_0_23_249
*947 FILLER_0_23_261
*948 FILLER_0_23_27
*949 FILLER_0_23_273
*950 FILLER_0_23_279
*951 FILLER_0_23_281
*952 FILLER_0_23_293
*953 FILLER_0_23_3
*954 FILLER_0_23_305
*955 FILLER_0_23_317
*956 FILLER_0_23_329
*957 FILLER_0_23_335
*958 FILLER_0_23_337
*959 FILLER_0_23_349
*960 FILLER_0_23_39
*961 FILLER_0_23_51
*962 FILLER_0_23_55
*963 FILLER_0_23_57
*964 FILLER_0_23_69
*965 FILLER_0_23_81
*966 FILLER_0_23_93
*967 FILLER_0_24_101
*968 FILLER_0_24_115
*969 FILLER_0_24_121
*970 FILLER_0_24_15
*971 FILLER_0_24_154
*972 FILLER_0_24_169
*973 FILLER_0_24_186
*974 FILLER_0_24_191
*975 FILLER_0_24_195
*976 FILLER_0_24_197
*977 FILLER_0_24_212
*978 FILLER_0_24_216
*979 FILLER_0_24_230
*980 FILLER_0_24_242
*981 FILLER_0_24_249
*982 FILLER_0_24_253
*983 FILLER_0_24_265
*984 FILLER_0_24_27
*985 FILLER_0_24_277
*986 FILLER_0_24_289
*987 FILLER_0_24_29
*988 FILLER_0_24_3
*989 FILLER_0_24_301
*990 FILLER_0_24_307
*991 FILLER_0_24_309
*992 FILLER_0_24_321
*993 FILLER_0_24_333
*994 FILLER_0_24_345
*995 FILLER_0_24_41
*996 FILLER_0_24_53
*997 FILLER_0_24_65
*998 FILLER_0_24_77
*999 FILLER_0_24_83
*1000 FILLER_0_24_97
*1001 FILLER_0_25_104
*1002 FILLER_0_25_119
*1003 FILLER_0_25_129
*1004 FILLER_0_25_141
*1005 FILLER_0_25_145
*1006 FILLER_0_25_15
*1007 FILLER_0_25_152
*1008 FILLER_0_25_167
*1009 FILLER_0_25_169
*1010 FILLER_0_25_175
*1011 FILLER_0_25_183
*1012 FILLER_0_25_189
*1013 FILLER_0_25_209
*1014 FILLER_0_25_215
*1015 FILLER_0_25_221
*1016 FILLER_0_25_225
*1017 FILLER_0_25_237
*1018 FILLER_0_25_256
*1019 FILLER_0_25_262
*1020 FILLER_0_25_27
*1021 FILLER_0_25_278
*1022 FILLER_0_25_281
*1023 FILLER_0_25_293
*1024 FILLER_0_25_3
*1025 FILLER_0_25_305
*1026 FILLER_0_25_317
*1027 FILLER_0_25_329
*1028 FILLER_0_25_335
*1029 FILLER_0_25_337
*1030 FILLER_0_25_349
*1031 FILLER_0_25_39
*1032 FILLER_0_25_51
*1033 FILLER_0_25_55
*1034 FILLER_0_25_57
*1035 FILLER_0_25_69
*1036 FILLER_0_25_77
*1037 FILLER_0_25_86
*1038 FILLER_0_25_98
*1039 FILLER_0_26_107
*1040 FILLER_0_26_119
*1041 FILLER_0_26_126
*1042 FILLER_0_26_138
*1043 FILLER_0_26_15
*1044 FILLER_0_26_156
*1045 FILLER_0_26_166
*1046 FILLER_0_26_185
*1047 FILLER_0_26_212
*1048 FILLER_0_26_222
*1049 FILLER_0_26_234
*1050 FILLER_0_26_248
*1051 FILLER_0_26_253
*1052 FILLER_0_26_261
*1053 FILLER_0_26_268
*1054 FILLER_0_26_27
*1055 FILLER_0_26_276
*1056 FILLER_0_26_29
*1057 FILLER_0_26_293
*1058 FILLER_0_26_3
*1059 FILLER_0_26_305
*1060 FILLER_0_26_309
*1061 FILLER_0_26_321
*1062 FILLER_0_26_333
*1063 FILLER_0_26_345
*1064 FILLER_0_26_41
*1065 FILLER_0_26_53
*1066 FILLER_0_26_65
*1067 FILLER_0_27_100
*1068 FILLER_0_27_134
*1069 FILLER_0_27_139
*1070 FILLER_0_27_147
*1071 FILLER_0_27_15
*1072 FILLER_0_27_159
*1073 FILLER_0_27_167
*1074 FILLER_0_27_169
*1075 FILLER_0_27_181
*1076 FILLER_0_27_188
*1077 FILLER_0_27_209
*1078 FILLER_0_27_223
*1079 FILLER_0_27_231
*1080 FILLER_0_27_237
*1081 FILLER_0_27_243
*1082 FILLER_0_27_255
*1083 FILLER_0_27_27
*1084 FILLER_0_27_273
*1085 FILLER_0_27_281
*1086 FILLER_0_27_297
*1087 FILLER_0_27_3
*1088 FILLER_0_27_309
*1089 FILLER_0_27_321
*1090 FILLER_0_27_333
*1091 FILLER_0_27_337
*1092 FILLER_0_27_349
*1093 FILLER_0_27_39
*1094 FILLER_0_27_51
*1095 FILLER_0_27_55
*1096 FILLER_0_27_57
*1097 FILLER_0_27_69
*1098 FILLER_0_27_73
*1099 FILLER_0_27_77
*1100 FILLER_0_27_81
*1101 FILLER_0_27_88
*1102 FILLER_0_28_106
*1103 FILLER_0_28_118
*1104 FILLER_0_28_130
*1105 FILLER_0_28_15
*1106 FILLER_0_28_157
*1107 FILLER_0_28_163
*1108 FILLER_0_28_169
*1109 FILLER_0_28_177
*1110 FILLER_0_28_185
*1111 FILLER_0_28_195
*1112 FILLER_0_28_197
*1113 FILLER_0_28_202
*1114 FILLER_0_28_214
*1115 FILLER_0_28_226
*1116 FILLER_0_28_234
*1117 FILLER_0_28_247
*1118 FILLER_0_28_251
*1119 FILLER_0_28_253
*1120 FILLER_0_28_257
*1121 FILLER_0_28_266
*1122 FILLER_0_28_27
*1123 FILLER_0_28_278
*1124 FILLER_0_28_284
*1125 FILLER_0_28_288
*1126 FILLER_0_28_29
*1127 FILLER_0_28_3
*1128 FILLER_0_28_300
*1129 FILLER_0_28_309
*1130 FILLER_0_28_321
*1131 FILLER_0_28_333
*1132 FILLER_0_28_345
*1133 FILLER_0_28_41
*1134 FILLER_0_28_53
*1135 FILLER_0_28_65
*1136 FILLER_0_28_69
*1137 FILLER_0_28_82
*1138 FILLER_0_28_85
*1139 FILLER_0_29_111
*1140 FILLER_0_29_130
*1141 FILLER_0_29_138
*1142 FILLER_0_29_146
*1143 FILLER_0_29_15
*1144 FILLER_0_29_164
*1145 FILLER_0_29_177
*1146 FILLER_0_29_186
*1147 FILLER_0_29_198
*1148 FILLER_0_29_208
*1149 FILLER_0_29_220
*1150 FILLER_0_29_231
*1151 FILLER_0_29_247
*1152 FILLER_0_29_255
*1153 FILLER_0_29_27
*1154 FILLER_0_29_273
*1155 FILLER_0_29_281
*1156 FILLER_0_29_293
*1157 FILLER_0_29_3
*1158 FILLER_0_29_301
*1159 FILLER_0_29_305
*1160 FILLER_0_29_318
*1161 FILLER_0_29_330
*1162 FILLER_0_29_337
*1163 FILLER_0_29_349
*1164 FILLER_0_29_39
*1165 FILLER_0_29_51
*1166 FILLER_0_29_55
*1167 FILLER_0_29_57
*1168 FILLER_0_29_81
*1169 FILLER_0_29_89
*1170 FILLER_0_29_99
*1171 FILLER_0_2_109
*1172 FILLER_0_2_121
*1173 FILLER_0_2_133
*1174 FILLER_0_2_139
*1175 FILLER_0_2_141
*1176 FILLER_0_2_15
*1177 FILLER_0_2_153
*1178 FILLER_0_2_165
*1179 FILLER_0_2_177
*1180 FILLER_0_2_189
*1181 FILLER_0_2_195
*1182 FILLER_0_2_197
*1183 FILLER_0_2_209
*1184 FILLER_0_2_221
*1185 FILLER_0_2_233
*1186 FILLER_0_2_245
*1187 FILLER_0_2_251
*1188 FILLER_0_2_253
*1189 FILLER_0_2_265
*1190 FILLER_0_2_27
*1191 FILLER_0_2_277
*1192 FILLER_0_2_289
*1193 FILLER_0_2_29
*1194 FILLER_0_2_3
*1195 FILLER_0_2_301
*1196 FILLER_0_2_307
*1197 FILLER_0_2_309
*1198 FILLER_0_2_321
*1199 FILLER_0_2_333
*1200 FILLER_0_2_345
*1201 FILLER_0_2_41
*1202 FILLER_0_2_53
*1203 FILLER_0_2_65
*1204 FILLER_0_2_77
*1205 FILLER_0_2_83
*1206 FILLER_0_2_85
*1207 FILLER_0_2_97
*1208 FILLER_0_30_105
*1209 FILLER_0_30_118
*1210 FILLER_0_30_126
*1211 FILLER_0_30_136
*1212 FILLER_0_30_145
*1213 FILLER_0_30_15
*1214 FILLER_0_30_151
*1215 FILLER_0_30_160
*1216 FILLER_0_30_181
*1217 FILLER_0_30_192
*1218 FILLER_0_30_197
*1219 FILLER_0_30_205
*1220 FILLER_0_30_215
*1221 FILLER_0_30_227
*1222 FILLER_0_30_235
*1223 FILLER_0_30_247
*1224 FILLER_0_30_251
*1225 FILLER_0_30_253
*1226 FILLER_0_30_266
*1227 FILLER_0_30_27
*1228 FILLER_0_30_289
*1229 FILLER_0_30_29
*1230 FILLER_0_30_3
*1231 FILLER_0_30_301
*1232 FILLER_0_30_324
*1233 FILLER_0_30_336
*1234 FILLER_0_30_348
*1235 FILLER_0_30_41
*1236 FILLER_0_30_53
*1237 FILLER_0_30_65
*1238 FILLER_0_30_77
*1239 FILLER_0_30_83
*1240 FILLER_0_30_92
*1241 FILLER_0_31_113
*1242 FILLER_0_31_126
*1243 FILLER_0_31_138
*1244 FILLER_0_31_15
*1245 FILLER_0_31_150
*1246 FILLER_0_31_154
*1247 FILLER_0_31_162
*1248 FILLER_0_31_181
*1249 FILLER_0_31_200
*1250 FILLER_0_31_223
*1251 FILLER_0_31_225
*1252 FILLER_0_31_236
*1253 FILLER_0_31_248
*1254 FILLER_0_31_257
*1255 FILLER_0_31_265
*1256 FILLER_0_31_27
*1257 FILLER_0_31_272
*1258 FILLER_0_31_281
*1259 FILLER_0_31_289
*1260 FILLER_0_31_3
*1261 FILLER_0_31_303
*1262 FILLER_0_31_313
*1263 FILLER_0_31_330
*1264 FILLER_0_31_337
*1265 FILLER_0_31_349
*1266 FILLER_0_31_39
*1267 FILLER_0_31_51
*1268 FILLER_0_31_55
*1269 FILLER_0_31_57
*1270 FILLER_0_31_65
*1271 FILLER_0_31_80
*1272 FILLER_0_31_86
*1273 FILLER_0_31_97
*1274 FILLER_0_32_106
*1275 FILLER_0_32_118
*1276 FILLER_0_32_126
*1277 FILLER_0_32_134
*1278 FILLER_0_32_141
*1279 FILLER_0_32_15
*1280 FILLER_0_32_152
*1281 FILLER_0_32_162
*1282 FILLER_0_32_174
*1283 FILLER_0_32_197
*1284 FILLER_0_32_212
*1285 FILLER_0_32_224
*1286 FILLER_0_32_232
*1287 FILLER_0_32_236
*1288 FILLER_0_32_253
*1289 FILLER_0_32_266
*1290 FILLER_0_32_27
*1291 FILLER_0_32_282
*1292 FILLER_0_32_289
*1293 FILLER_0_32_29
*1294 FILLER_0_32_3
*1295 FILLER_0_32_303
*1296 FILLER_0_32_307
*1297 FILLER_0_32_309
*1298 FILLER_0_32_326
*1299 FILLER_0_32_332
*1300 FILLER_0_32_349
*1301 FILLER_0_32_41
*1302 FILLER_0_32_53
*1303 FILLER_0_32_65
*1304 FILLER_0_32_77
*1305 FILLER_0_32_83
*1306 FILLER_0_32_85
*1307 FILLER_0_32_91
*1308 FILLER_0_33_103
*1309 FILLER_0_33_107
*1310 FILLER_0_33_126
*1311 FILLER_0_33_141
*1312 FILLER_0_33_15
*1313 FILLER_0_33_152
*1314 FILLER_0_33_164
*1315 FILLER_0_33_181
*1316 FILLER_0_33_210
*1317 FILLER_0_33_219
*1318 FILLER_0_33_223
*1319 FILLER_0_33_225
*1320 FILLER_0_33_231
*1321 FILLER_0_33_236
*1322 FILLER_0_33_248
*1323 FILLER_0_33_260
*1324 FILLER_0_33_27
*1325 FILLER_0_33_272
*1326 FILLER_0_33_286
*1327 FILLER_0_33_290
*1328 FILLER_0_33_297
*1329 FILLER_0_33_3
*1330 FILLER_0_33_301
*1331 FILLER_0_33_310
*1332 FILLER_0_33_333
*1333 FILLER_0_33_337
*1334 FILLER_0_33_349
*1335 FILLER_0_33_39
*1336 FILLER_0_33_51
*1337 FILLER_0_33_55
*1338 FILLER_0_33_57
*1339 FILLER_0_33_69
*1340 FILLER_0_33_88
*1341 FILLER_0_33_92
*1342 FILLER_0_34_114
*1343 FILLER_0_34_134
*1344 FILLER_0_34_141
*1345 FILLER_0_34_15
*1346 FILLER_0_34_156
*1347 FILLER_0_34_164
*1348 FILLER_0_34_179
*1349 FILLER_0_34_185
*1350 FILLER_0_34_194
*1351 FILLER_0_34_197
*1352 FILLER_0_34_203
*1353 FILLER_0_34_207
*1354 FILLER_0_34_215
*1355 FILLER_0_34_228
*1356 FILLER_0_34_245
*1357 FILLER_0_34_253
*1358 FILLER_0_34_27
*1359 FILLER_0_34_270
*1360 FILLER_0_34_286
*1361 FILLER_0_34_29
*1362 FILLER_0_34_294
*1363 FILLER_0_34_3
*1364 FILLER_0_34_304
*1365 FILLER_0_34_309
*1366 FILLER_0_34_315
*1367 FILLER_0_34_339
*1368 FILLER_0_34_41
*1369 FILLER_0_34_53
*1370 FILLER_0_34_65
*1371 FILLER_0_34_77
*1372 FILLER_0_34_83
*1373 FILLER_0_34_85
*1374 FILLER_0_34_97
*1375 FILLER_0_35_105
*1376 FILLER_0_35_111
*1377 FILLER_0_35_113
*1378 FILLER_0_35_125
*1379 FILLER_0_35_129
*1380 FILLER_0_35_15
*1381 FILLER_0_35_167
*1382 FILLER_0_35_169
*1383 FILLER_0_35_181
*1384 FILLER_0_35_188
*1385 FILLER_0_35_192
*1386 FILLER_0_35_204
*1387 FILLER_0_35_216
*1388 FILLER_0_35_225
*1389 FILLER_0_35_235
*1390 FILLER_0_35_247
*1391 FILLER_0_35_265
*1392 FILLER_0_35_27
*1393 FILLER_0_35_294
*1394 FILLER_0_35_3
*1395 FILLER_0_35_311
*1396 FILLER_0_35_335
*1397 FILLER_0_35_337
*1398 FILLER_0_35_349
*1399 FILLER_0_35_39
*1400 FILLER_0_35_51
*1401 FILLER_0_35_55
*1402 FILLER_0_35_57
*1403 FILLER_0_35_69
*1404 FILLER_0_35_81
*1405 FILLER_0_35_93
*1406 FILLER_0_36_109
*1407 FILLER_0_36_118
*1408 FILLER_0_36_122
*1409 FILLER_0_36_139
*1410 FILLER_0_36_141
*1411 FILLER_0_36_15
*1412 FILLER_0_36_153
*1413 FILLER_0_36_197
*1414 FILLER_0_36_208
*1415 FILLER_0_36_230
*1416 FILLER_0_36_246
*1417 FILLER_0_36_253
*1418 FILLER_0_36_265
*1419 FILLER_0_36_27
*1420 FILLER_0_36_277
*1421 FILLER_0_36_283
*1422 FILLER_0_36_287
*1423 FILLER_0_36_29
*1424 FILLER_0_36_295
*1425 FILLER_0_36_3
*1426 FILLER_0_36_316
*1427 FILLER_0_36_340
*1428 FILLER_0_36_348
*1429 FILLER_0_36_41
*1430 FILLER_0_36_53
*1431 FILLER_0_36_65
*1432 FILLER_0_36_77
*1433 FILLER_0_36_83
*1434 FILLER_0_36_85
*1435 FILLER_0_36_97
*1436 FILLER_0_37_105
*1437 FILLER_0_37_111
*1438 FILLER_0_37_113
*1439 FILLER_0_37_124
*1440 FILLER_0_37_128
*1441 FILLER_0_37_136
*1442 FILLER_0_37_140
*1443 FILLER_0_37_15
*1444 FILLER_0_37_158
*1445 FILLER_0_37_166
*1446 FILLER_0_37_191
*1447 FILLER_0_37_211
*1448 FILLER_0_37_223
*1449 FILLER_0_37_225
*1450 FILLER_0_37_229
*1451 FILLER_0_37_240
*1452 FILLER_0_37_248
*1453 FILLER_0_37_267
*1454 FILLER_0_37_27
*1455 FILLER_0_37_293
*1456 FILLER_0_37_3
*1457 FILLER_0_37_303
*1458 FILLER_0_37_345
*1459 FILLER_0_37_39
*1460 FILLER_0_37_51
*1461 FILLER_0_37_55
*1462 FILLER_0_37_57
*1463 FILLER_0_37_69
*1464 FILLER_0_37_81
*1465 FILLER_0_37_93
*1466 FILLER_0_38_104
*1467 FILLER_0_38_110
*1468 FILLER_0_38_113
*1469 FILLER_0_38_141
*1470 FILLER_0_38_149
*1471 FILLER_0_38_15
*1472 FILLER_0_38_165
*1473 FILLER_0_38_169
*1474 FILLER_0_38_177
*1475 FILLER_0_38_191
*1476 FILLER_0_38_195
*1477 FILLER_0_38_219
*1478 FILLER_0_38_223
*1479 FILLER_0_38_237
*1480 FILLER_0_38_249
*1481 FILLER_0_38_27
*1482 FILLER_0_38_285
*1483 FILLER_0_38_29
*1484 FILLER_0_38_3
*1485 FILLER_0_38_343
*1486 FILLER_0_38_41
*1487 FILLER_0_38_53
*1488 FILLER_0_38_57
*1489 FILLER_0_38_68
*1490 FILLER_0_38_74
*1491 FILLER_0_38_80
*1492 FILLER_0_38_88
*1493 FILLER_0_38_92
*1494 FILLER_0_38_98
*1495 FILLER_0_3_105
*1496 FILLER_0_3_111
*1497 FILLER_0_3_113
*1498 FILLER_0_3_125
*1499 FILLER_0_3_137
*1500 FILLER_0_3_149
*1501 FILLER_0_3_15
*1502 FILLER_0_3_161
*1503 FILLER_0_3_167
*1504 FILLER_0_3_169
*1505 FILLER_0_3_181
*1506 FILLER_0_3_193
*1507 FILLER_0_3_205
*1508 FILLER_0_3_217
*1509 FILLER_0_3_223
*1510 FILLER_0_3_225
*1511 FILLER_0_3_237
*1512 FILLER_0_3_249
*1513 FILLER_0_3_261
*1514 FILLER_0_3_27
*1515 FILLER_0_3_273
*1516 FILLER_0_3_279
*1517 FILLER_0_3_281
*1518 FILLER_0_3_293
*1519 FILLER_0_3_3
*1520 FILLER_0_3_305
*1521 FILLER_0_3_317
*1522 FILLER_0_3_329
*1523 FILLER_0_3_335
*1524 FILLER_0_3_337
*1525 FILLER_0_3_349
*1526 FILLER_0_3_39
*1527 FILLER_0_3_51
*1528 FILLER_0_3_55
*1529 FILLER_0_3_57
*1530 FILLER_0_3_69
*1531 FILLER_0_3_81
*1532 FILLER_0_3_93
*1533 FILLER_0_4_109
*1534 FILLER_0_4_121
*1535 FILLER_0_4_133
*1536 FILLER_0_4_139
*1537 FILLER_0_4_141
*1538 FILLER_0_4_15
*1539 FILLER_0_4_153
*1540 FILLER_0_4_165
*1541 FILLER_0_4_177
*1542 FILLER_0_4_189
*1543 FILLER_0_4_195
*1544 FILLER_0_4_197
*1545 FILLER_0_4_209
*1546 FILLER_0_4_221
*1547 FILLER_0_4_233
*1548 FILLER_0_4_245
*1549 FILLER_0_4_251
*1550 FILLER_0_4_253
*1551 FILLER_0_4_265
*1552 FILLER_0_4_27
*1553 FILLER_0_4_277
*1554 FILLER_0_4_289
*1555 FILLER_0_4_29
*1556 FILLER_0_4_3
*1557 FILLER_0_4_301
*1558 FILLER_0_4_307
*1559 FILLER_0_4_309
*1560 FILLER_0_4_321
*1561 FILLER_0_4_333
*1562 FILLER_0_4_345
*1563 FILLER_0_4_41
*1564 FILLER_0_4_53
*1565 FILLER_0_4_65
*1566 FILLER_0_4_77
*1567 FILLER_0_4_83
*1568 FILLER_0_4_85
*1569 FILLER_0_4_97
*1570 FILLER_0_5_105
*1571 FILLER_0_5_111
*1572 FILLER_0_5_113