*SPEF "ieee 1481-1999"
*DESIGN "tt_um_kskyou"
*DATE "11:11:11 Fri 11 11, 1111"
*VENDOR "OpenRCX"
*PROGRAM "Parallel Extraction"
*VERSION "1.0"
*DESIGN_FLOW "NAME_SCOPE LOCAL" "PIN_CAP NONE"
*DIVIDER /
*DELIMITER :
*BUS_DELIMITER []
*T_UNIT 1 NS
*C_UNIT 1 PF
*R_UNIT 1 OHM
*L_UNIT 1 HENRY

*NAME_MAP
*3 clk
*4 ena
*5 rst_n
*6 ui_in[0]
*7 ui_in[1]
*8 ui_in[2]
*9 ui_in[3]
*10 ui_in[4]
*11 ui_in[5]
*12 ui_in[6]
*13 ui_in[7]
*14 uio_in[0]
*15 uio_in[1]
*16 uio_in[2]
*17 uio_in[3]
*18 uio_in[4]
*19 uio_in[5]
*20 uio_in[6]
*21 uio_in[7]
*22 net28
*23 net29
*24 net30
*25 net31
*26 net32
*27 net33
*28 net34
*29 net35
*30 net36
*31 net37
*32 net38
*33 net39
*34 net40
*35 net41
*36 net42
*37 net43
*38 uo_out[0]
*39 uo_out[1]
*40 uo_out[2]
*41 uo_out[3]
*42 uo_out[4]
*43 uo_out[5]
*44 uo_out[6]
*45 uo_out[7]
*46 D\[0\]
*47 D\[10\]
*48 D\[11\]
*49 D\[12\]
*50 D\[13\]
*51 D\[1\]
*52 D\[2\]
*53 D\[3\]
*54 D\[4\]
*55 D\[5\]
*56 D\[6\]
*57 D\[7\]
*58 D\[8\]
*59 D\[9\]
*60 Ps\[0\]
*61 Ps\[10\]
*62 Ps\[11\]
*63 Ps\[12\]
*64 Ps\[13\]
*65 Ps\[14\]
*66 Ps\[15\]
*67 Ps\[1\]
*68 Ps\[2\]
*69 Ps\[3\]
*70 Ps\[4\]
*71 Ps\[5\]
*72 Ps\[6\]
*73 Ps\[7\]
*74 Ps\[8\]
*75 Ps\[9\]
*76 Qs\[0\]
*77 Qs\[10\]
*78 Qs\[11\]
*79 Qs\[12\]
*80 Qs\[13\]
*81 Qs\[14\]
*82 Qs\[15\]
*83 Qs\[1\]
*84 Qs\[2\]
*85 Qs\[3\]
*86 Qs\[4\]
*87 Qs\[5\]
*88 Qs\[6\]
*89 Qs\[7\]
*90 Qs\[8\]
*91 Qs\[9\]
*92 R\[0\]
*93 R\[1\]
*94 R\[2\]
*95 R\[3\]
*96 R\[4\]
*97 R\[5\]
*98 R\[6\]
*99 R\[7\]
*100 X\[0\]
*101 X\[1\]
*102 X\[2\]
*103 X\[3\]
*104 X\[4\]
*105 X\[5\]
*106 X\[6\]
*107 X\[7\]
*108 Y\[0\]
*109 Y\[1\]
*110 Y\[2\]
*111 Y\[3\]
*112 Y\[4\]
*113 Y\[5\]
*114 Y\[6\]
*115 Y\[7\]
*116 Z\[0\]
*117 Z\[1\]
*118 Z\[2\]
*119 Z\[3\]
*120 Z\[4\]
*121 Z\[5\]
*122 Z\[6\]
*123 Z\[7\]
*124 _0000_
*125 _0001_
*126 _0002_
*127 _0003_
*128 _0004_
*129 _0005_
*130 _0006_
*131 _0007_
*132 _0008_
*133 _0009_
*134 _0010_
*135 _0011_
*136 _0012_
*137 _0013_
*138 _0014_
*139 _0015_
*140 _0016_
*141 _0017_
*142 _0018_
*143 _0019_
*144 _0020_
*145 _0021_
*146 _0022_
*147 _0023_
*148 _0024_
*149 _0025_
*150 _0026_
*151 _0027_
*152 _0028_
*153 _0029_
*154 _0030_
*155 _0031_
*156 _0032_
*157 _0033_
*158 _0034_
*159 _0035_
*160 _0036_
*161 _0037_
*162 _0038_
*163 _0039_
*164 _0040_
*165 _0041_
*166 _0042_
*167 _0043_
*168 _0044_
*169 _0045_
*170 _0046_
*171 _0047_
*172 _0048_
*173 _0049_
*174 _0050_
*175 _0051_
*176 _0052_
*177 _0053_
*178 _0054_
*179 _0055_
*180 _0056_
*181 _0057_
*182 _0058_
*183 _0059_
*184 _0060_
*185 _0061_
*186 _0062_
*187 _0063_
*188 _0064_
*189 _0065_
*190 _0066_
*191 _0067_
*192 _0068_
*193 _0069_
*194 _0070_
*195 _0071_
*196 _0072_
*197 _0073_
*198 _0074_
*199 _0075_
*200 _0076_
*201 _0077_
*202 _0078_
*203 _0079_
*204 _0080_
*205 _0081_
*206 _0082_
*207 _0083_
*208 _0084_
*209 _0085_
*210 _0086_
*211 _0087_
*212 _0088_
*213 _0089_
*214 _0090_
*215 _0091_
*216 _0092_
*217 _0093_
*218 _0094_
*219 _0095_
*220 _0096_
*221 _0097_
*222 _0098_
*223 _0099_
*224 _0100_
*225 _0101_
*226 _0102_
*227 _0103_
*228 _0104_
*229 _0105_
*230 _0106_
*231 _0107_
*232 _0108_
*233 _0109_
*234 _0110_
*235 _0111_
*236 _0112_
*237 _0113_
*238 _0114_
*239 _0115_
*240 _0116_
*241 _0117_
*242 _0118_
*243 _0119_
*244 _0120_
*245 _0121_
*246 _0122_
*247 _0123_
*248 _0124_
*249 _0125_
*250 _0126_
*251 _0127_
*252 _0128_
*253 _0129_
*254 _0130_
*255 _0131_
*256 _0132_
*257 _0133_
*258 _0134_
*259 _0135_
*260 _0136_
*261 _0137_
*262 _0138_
*263 _0139_
*264 _0140_
*265 _0141_
*266 _0142_
*267 _0143_
*268 _0144_
*269 _0145_
*270 _0146_
*271 _0147_
*272 _0148_
*273 _0149_
*274 _0150_
*275 _0151_
*276 _0152_
*277 _0153_
*278 _0154_
*279 _0155_
*280 _0156_
*281 _0157_
*282 _0158_
*283 _0159_
*284 _0160_
*285 _0161_
*286 _0162_
*287 _0163_
*288 _0164_
*289 _0165_
*290 _0166_
*291 _0167_
*292 _0168_
*293 _0169_
*294 _0170_
*295 _0171_
*296 _0172_
*297 _0173_
*298 _0174_
*299 _0175_
*300 _0176_
*301 _0177_
*302 _0178_
*303 _0179_
*304 _0180_
*305 _0181_
*306 _0182_
*307 _0183_
*308 _0184_
*309 _0185_
*310 _0186_
*311 _0187_
*312 _0188_
*313 _0189_
*314 _0190_
*315 _0191_
*316 _0192_
*317 _0193_
*318 _0194_
*319 _0195_
*320 _0196_
*321 _0197_
*322 _0198_
*323 _0199_
*324 _0200_
*325 _0201_
*326 _0202_
*327 _0203_
*328 _0204_
*329 _0205_
*330 _0206_
*331 _0207_
*332 _0208_
*333 _0209_
*334 _0210_
*335 _0211_
*336 _0212_
*337 _0213_
*338 _0214_
*339 _0215_
*340 _0216_
*341 _0217_
*342 _0218_
*343 _0219_
*344 _0220_
*345 _0221_
*346 _0222_
*347 _0223_
*348 _0224_
*349 _0225_
*350 _0226_
*351 _0227_
*352 _0228_
*353 _0229_
*354 _0230_
*355 _0231_
*356 _0232_
*357 _0233_
*358 _0234_
*359 _0235_
*360 _0236_
*361 _0237_
*362 _0238_
*363 _0239_
*364 _0240_
*365 _0241_
*366 _0242_
*367 _0243_
*368 _0244_
*369 _0245_
*370 _0246_
*371 _0247_
*372 _0248_
*373 _0249_
*374 _0250_
*375 _0251_
*376 _0252_
*377 _0253_
*378 _0254_
*379 _0255_
*380 _0256_
*381 _0257_
*382 _0258_
*383 _0259_
*384 _0260_
*385 _0261_
*386 _0262_
*387 _0263_
*388 _0264_
*389 _0265_
*390 _0266_
*391 _0267_
*392 _0268_
*393 _0269_
*394 _0270_
*395 _0271_
*396 _0272_
*397 _0273_
*398 _0274_
*399 _0275_
*400 _0276_
*401 _0277_
*402 _0278_
*403 _0279_
*404 _0280_
*405 _0281_
*406 _0282_
*407 _0283_
*408 _0284_
*409 _0285_
*410 _0286_
*411 _0287_
*412 _0288_
*413 _0289_
*414 _0290_
*415 _0291_
*416 _0292_
*417 _0293_
*418 _0294_
*419 _0295_
*420 _0296_
*421 _0297_
*422 _0298_
*423 _0299_
*424 _0300_
*425 _0301_
*426 _0302_
*427 _0303_
*428 _0304_
*429 _0305_
*430 _0306_
*431 _0307_
*432 _0308_
*433 _0309_
*434 _0310_
*435 _0311_
*436 _0312_
*437 _0313_
*438 _0314_
*439 _0315_
*440 _0316_
*441 _0317_
*442 _0318_
*443 _0319_
*444 _0320_
*445 _0321_
*446 _0322_
*447 _0323_
*448 _0324_
*449 _0325_
*450 _0326_
*451 _0327_
*452 _0328_
*453 _0329_
*454 _0330_
*455 _0331_
*456 _0332_
*457 _0333_
*458 _0334_
*459 _0335_
*460 _0336_
*461 _0337_
*462 _0338_
*463 _0339_
*464 _0340_
*465 _0341_
*466 _0342_
*467 _0343_
*468 _0344_
*469 _0345_
*470 _0346_
*471 _0347_
*472 _0348_
*473 _0349_
*474 _0350_
*475 _0351_
*476 _0352_
*477 _0353_
*478 _0354_
*479 _0355_
*480 _0356_
*481 _0357_
*482 _0358_
*483 _0359_
*484 _0360_
*485 _0361_
*486 _0362_
*487 _0363_
*488 _0364_
*489 _0365_
*490 _0366_
*491 _0367_
*492 _0368_
*493 _0369_
*494 _0370_
*495 _0371_
*496 _0372_
*497 _0373_
*498 _0374_
*499 _0375_
*500 _0376_
*501 _0377_
*502 _0378_
*503 _0379_
*504 _0380_
*505 _0381_
*506 _0382_
*507 _0383_
*508 _0384_
*509 _0385_
*510 _0386_
*511 _0387_
*512 _0388_
*513 _0389_
*514 _0390_
*515 _0391_
*516 _0392_
*517 _0393_
*518 _0394_
*519 _0395_
*520 _0396_
*521 _0397_
*522 _0398_
*523 _0399_
*524 _0400_
*525 _0401_
*526 _0402_
*527 _0403_
*528 _0404_
*529 _0405_
*530 _0406_
*531 _0407_
*532 _0408_
*533 _0409_
*534 _0410_
*535 _0411_
*536 _0412_
*537 _0413_
*538 _0414_
*539 _0415_
*540 _0416_
*541 _0417_
*542 _0418_
*543 _0419_
*544 _0420_
*545 _0421_
*546 _0422_
*547 _0423_
*548 _0424_
*549 _0425_
*550 _0426_
*551 _0427_
*552 _0428_
*553 _0429_
*554 _0430_
*555 _0431_
*556 _0432_
*557 _0433_
*558 _0434_
*559 _0435_
*560 _0436_
*561 _0437_
*562 _0438_
*563 _0439_
*564 _0440_
*565 _0441_
*566 _0442_
*567 _0443_
*568 _0444_
*569 _0445_
*570 _0446_
*571 _0447_
*572 _0448_
*573 _0449_
*574 _0450_
*575 _0451_
*576 _0452_
*577 _0453_
*578 _0454_
*579 _0455_
*580 _0456_
*581 _0457_
*582 _0458_
*583 _0459_
*584 _0460_
*585 _0461_
*586 _0462_
*587 _0463_
*588 _0464_
*589 _0465_
*590 _0466_
*591 _0467_
*592 _0468_
*593 _0469_
*594 _0470_
*595 _0471_
*596 _0472_
*597 _0473_
*598 _0474_
*599 _0475_
*600 _0476_
*601 _0477_
*602 _0478_
*603 _0479_
*604 _0480_
*605 _0481_
*606 _0482_
*607 _0483_
*608 _0484_
*609 _0485_
*610 _0486_
*611 _0487_
*612 _0488_
*613 _0489_
*614 _0490_
*615 _0491_
*616 _0492_
*617 _0493_
*618 _0494_
*619 _0495_
*620 _0496_
*621 _0497_
*622 _0498_
*623 _0499_
*624 _0500_
*625 _0501_
*626 _0502_
*627 _0503_
*628 _0504_
*629 _0505_
*630 _0506_
*631 _0507_
*632 _0508_
*633 _0509_
*634 _0510_
*635 _0511_
*636 _0512_
*637 _0513_
*638 _0514_
*639 _0515_
*640 _0516_
*641 _0517_
*642 _0518_
*643 _0519_
*644 _0520_
*645 _0521_
*646 _0522_
*647 _0523_
*648 _0524_
*649 _0525_
*650 _0526_
*651 _0527_
*652 _0528_
*653 _0529_
*654 _0530_
*655 _0531_
*656 _0532_
*657 _0533_
*658 _0534_
*659 _0535_
*660 _0536_
*661 _0537_
*662 _0538_
*663 _0539_
*664 _0540_
*665 _0541_
*666 _0542_
*667 _0543_
*668 _0544_
*669 _0545_
*670 _0546_
*671 _0547_
*672 _0548_
*673 _0549_
*674 _0550_
*675 _0551_
*676 _0552_
*677 _0553_
*678 _0554_
*679 _0555_
*680 _0556_
*681 _0557_
*682 _0558_
*683 _0559_
*684 _0560_
*685 _0561_
*686 _0562_
*687 _0563_
*688 _0564_
*689 _0565_
*690 _0566_
*691 _0567_
*692 _0568_
*693 _0569_
*694 _0570_
*695 _0571_
*696 _0572_
*697 _0573_
*698 _0574_
*699 _0575_
*700 _0576_
*701 _0577_
*702 _0578_
*703 _0579_
*704 _0580_
*705 _0581_
*706 _0582_
*707 _0583_
*708 _0584_
*709 _0585_
*710 _0586_
*711 _0587_
*712 _0588_
*713 _0589_
*714 _0590_
*715 _0591_
*716 _0592_
*717 _0593_
*718 _0594_
*719 _0595_
*720 _0596_
*721 _0597_
*722 _0598_
*723 _0599_
*724 _0600_
*725 _0601_
*726 _0602_
*727 _0603_
*728 _0604_
*729 _0605_
*730 _0606_
*731 _0607_
*732 _0608_
*733 _0609_
*734 _0610_
*735 _0611_
*736 _0612_
*737 _0613_
*738 _0614_
*739 _0615_
*740 _0616_
*741 _0617_
*742 _0618_
*743 _0619_
*744 _0620_
*745 _0621_
*746 _0622_
*747 _0623_
*748 _0624_
*749 _0625_
*750 _0626_
*751 _0627_
*752 _0628_
*753 _0629_
*754 _0630_
*755 _0631_
*756 _0632_
*757 _0633_
*758 _0634_
*759 _0635_
*760 _0636_
*761 _0637_
*762 _0638_
*763 _0639_
*764 _0640_
*765 _0641_
*766 _0642_
*767 _0643_
*768 _0644_
*769 _0645_
*770 _0646_
*771 _0647_
*772 _0648_
*773 _0649_
*774 _0650_
*775 _0651_
*776 _0652_
*777 _0653_
*778 _0654_
*779 _0655_
*780 _0656_
*781 _0657_
*782 _0658_
*783 _0659_
*784 _0660_
*785 _0661_
*786 _0662_
*787 _0663_
*788 _0664_
*789 _0665_
*790 _0666_
*791 _0667_
*792 _0668_
*793 _0669_
*794 _0670_
*795 _0671_
*796 _0672_
*797 _0673_
*798 _0674_
*799 _0675_
*800 _0676_
*801 _0677_
*802 _0678_
*803 _0679_
*804 _0680_
*805 _0681_
*806 _0682_
*807 _0683_
*808 _0684_
*809 _0685_
*810 _0686_
*811 _0687_
*812 _0688_
*813 _0689_
*814 _0690_
*815 _0691_
*816 _0692_
*817 _0693_
*818 _0694_
*819 _0695_
*820 _0696_
*821 _0697_
*822 _0698_
*823 _0699_
*824 _0700_
*825 _0701_
*826 _0702_
*827 _0703_
*828 _0704_
*829 _0705_
*830 _0706_
*831 _0707_
*832 _0708_
*833 _0709_
*834 _0710_
*835 _0711_
*836 _0712_
*837 _0713_
*838 _0714_
*839 _0715_
*840 _0716_
*841 _0717_
*842 _0718_
*843 _0719_
*844 _0720_
*845 _0721_
*846 _0722_
*847 _0723_
*848 _0724_
*849 _0725_
*850 _0726_
*851 _0727_
*852 _0728_
*853 _0729_
*854 _0730_
*855 _0731_
*856 _0732_
*857 _0733_
*858 _0734_
*859 _0735_
*860 _0736_
*861 _0737_
*862 _0738_
*863 _0739_
*864 _0740_
*865 _0741_
*866 _0742_
*867 _0743_
*868 _0744_
*869 _0745_
*870 _0746_
*871 _0747_
*872 _0748_
*873 _0749_
*874 _0750_
*875 _0751_
*876 _0752_
*877 button0
*878 button1
*879 clknet_0_clk
*880 clknet_4_0_0_clk
*881 clknet_4_10_0_clk
*882 clknet_4_11_0_clk
*883 clknet_4_12_0_clk
*884 clknet_4_13_0_clk
*885 clknet_4_14_0_clk
*886 clknet_4_15_0_clk
*887 clknet_4_1_0_clk
*888 clknet_4_2_0_clk
*889 clknet_4_3_0_clk
*890 clknet_4_4_0_clk
*891 clknet_4_5_0_clk
*892 clknet_4_6_0_clk
*893 clknet_4_7_0_clk
*894 clknet_4_8_0_clk
*895 clknet_4_9_0_clk
*896 dev1\.P\[0\]
*897 dev1\.P\[10\]
*898 dev1\.P\[11\]
*899 dev1\.P\[12\]
*900 dev1\.P\[13\]
*901 dev1\.P\[14\]
*902 dev1\.P\[15\]
*903 dev1\.P\[1\]
*904 dev1\.P\[2\]
*905 dev1\.P\[3\]
*906 dev1\.P\[4\]
*907 dev1\.P\[5\]
*908 dev1\.P\[6\]
*909 dev1\.P\[7\]
*910 dev1\.P\[8\]
*911 dev1\.P\[9\]
*912 dev1\.Q\[0\]
*913 dev1\.Q\[10\]
*914 dev1\.Q\[11\]
*915 dev1\.Q\[12\]
*916 dev1\.Q\[13\]
*917 dev1\.Q\[14\]
*918 dev1\.Q\[15\]
*919 dev1\.Q\[1\]
*920 dev1\.Q\[2\]
*921 dev1\.Q\[3\]
*922 dev1\.Q\[4\]
*923 dev1\.Q\[5\]
*924 dev1\.Q\[6\]
*925 dev1\.Q\[7\]
*926 dev1\.Q\[8\]
*927 dev1\.Q\[9\]
*928 dev1\.watch\[0\]
*929 dev1\.watch\[1\]
*930 net1
*931 net10
*932 net100
*933 net101
*934 net102
*935 net103
*936 net104
*937 net105
*938 net106
*939 net107
*940 net108
*941 net109
*942 net11
*943 net110
*944 net111
*945 net112
*946 net113
*947 net114
*948 net115
*949 net116
*950 net117
*951 net118
*952 net119
*953 net12
*954 net120
*955 net121
*956 net122
*957 net123
*958 net124
*959 net125
*960 net126
*961 net127
*962 net128
*963 net129
*964 net13
*965 net130
*966 net131
*967 net132
*968 net133
*969 net134
*970 net135
*971 net14
*972 net15
*973 net16
*974 net17
*975 net18
*976 net19
*977 net2
*978 net20
*979 net21
*980 net22
*981 net23
*982 net24
*983 net25
*984 net26
*985 net27
*986 net3
*987 net4
*988 net44
*989 net45
*990 net46
*991 net47
*992 net48
*993 net49
*994 net5
*995 net50
*996 net51
*997 net52
*998 net53
*999 net54
*1000 net55
*1001 net56
*1002 net57
*1003 net58
*1004 net59
*1005 net6
*1006 net60
*1007 net61
*1008 net62
*1009 net63
*1010 net64
*1011 net65
*1012 net66
*1013 net67
*1014 net68
*1015 net69
*1016 net7
*1017 net70
*1018 net71
*1019 net72
*1020 net73
*1021 net74
*1022 net75
*1023 net76
*1024 net77
*1025 net78
*1026 net79
*1027 net8
*1028 net80
*1029 net81
*1030 net82
*1031 net83
*1032 net84
*1033 net85
*1034 net86
*1035 net87
*1036 net88
*1037 net89
*1038 net9
*1039 net90
*1040 net91
*1041 net92
*1042 net93
*1043 net94
*1044 net95
*1045 net96
*1046 net97
*1047 net98
*1048 net99
*1049 state\[0\]
*1050 state\[1\]
*1051 state\[2\]
*1052 state\[3\]
*1053 state\[4\]
*1054 state\[5\]
*1055 state\[6\]
*1056 state\[7\]
*1057 state\[8\]
*1058 state\[9\]
*1059 temp1\[0\]
*1060 temp1\[1\]
*1061 temp1\[2\]
*1062 temp1\[3\]
*1063 temp1\[4\]
*1064 temp1\[5\]
*1065 temp1\[6\]
*1066 temp1\[7\]
*1067 temp2\[0\]
*1068 temp2\[10\]
*1069 temp2\[11\]
*1070 temp2\[12\]
*1071 temp2\[13\]
*1072 temp2\[14\]
*1073 temp2\[15\]
*1074 temp2\[1\]
*1075 temp2\[2\]
*1076 temp2\[3\]
*1077 temp2\[4\]
*1078 temp2\[5\]
*1079 temp2\[6\]
*1080 temp2\[7\]
*1081 temp2\[8\]
*1082 temp2\[9\]
*1083 ANTENNA_1
*1084 ANTENNA_2
*1085 ANTENNA_3
*1086 ANTENNA_4
*1087 ANTENNA_5
*1088 ANTENNA_6
*1089 ANTENNA_7
*1090 ANTENNA_8
*1091 ANTENNA_9
*1092 FILLER_0_0_101
*1093 FILLER_0_0_111
*1094 FILLER_0_0_113
*1095 FILLER_0_0_125
*1096 FILLER_0_0_133
*1097 FILLER_0_0_139
*1098 FILLER_0_0_141
*1099 FILLER_0_0_15
*1100 FILLER_0_0_153
*1101 FILLER_0_0_165
*1102 FILLER_0_0_169
*1103 FILLER_0_0_181
*1104 FILLER_0_0_189
*1105 FILLER_0_0_195
*1106 FILLER_0_0_197
*1107 FILLER_0_0_209
*1108 FILLER_0_0_221
*1109 FILLER_0_0_225
*1110 FILLER_0_0_231
*1111 FILLER_0_0_238
*1112 FILLER_0_0_250
*1113 FILLER_0_0_253
*1114 FILLER_0_0_265
*1115 FILLER_0_0_27
*1116 FILLER_0_0_278
*1117 FILLER_0_0_281
*1118 FILLER_0_0_29
*1119 FILLER_0_0_293
*1120 FILLER_0_0_3
*1121 FILLER_0_0_305
*1122 FILLER_0_0_309
*1123 FILLER_0_0_317
*1124 FILLER_0_0_337
*1125 FILLER_0_0_349
*1126 FILLER_0_0_41
*1127 FILLER_0_0_53
*1128 FILLER_0_0_74
*1129 FILLER_0_0_82
*1130 FILLER_0_0_85
*1131 FILLER_0_0_97
*1132 FILLER_0_10_105
*1133 FILLER_0_10_137
*1134 FILLER_0_10_144
*1135 FILLER_0_10_15
*1136 FILLER_0_10_156
*1137 FILLER_0_10_168
*1138 FILLER_0_10_197
*1139 FILLER_0_10_207
*1140 FILLER_0_10_223
*1141 FILLER_0_10_267
*1142 FILLER_0_10_27
*1143 FILLER_0_10_279
*1144 FILLER_0_10_29
*1145 FILLER_0_10_3
*1146 FILLER_0_10_315
*1147 FILLER_0_10_343
*1148 FILLER_0_10_41
*1149 FILLER_0_10_52
*1150 FILLER_0_10_60
*1151 FILLER_0_10_69
*1152 FILLER_0_10_73
*1153 FILLER_0_10_80
*1154 FILLER_0_10_98
*1155 FILLER_0_11_109
*1156 FILLER_0_11_113
*1157 FILLER_0_11_130
*1158 FILLER_0_11_160
*1159 FILLER_0_11_176
*1160 FILLER_0_11_192
*1161 FILLER_0_11_200
*1162 FILLER_0_11_209
*1163 FILLER_0_11_218
*1164 FILLER_0_11_258
*1165 FILLER_0_11_27
*1166 FILLER_0_11_270
*1167 FILLER_0_11_3
*1168 FILLER_0_11_312
*1169 FILLER_0_11_344
*1170 FILLER_0_11_350
*1171 FILLER_0_11_49
*1172 FILLER_0_11_55
*1173 FILLER_0_11_57
*1174 FILLER_0_11_69
*1175 FILLER_0_11_87
*1176 FILLER_0_12_101
*1177 FILLER_0_12_139
*1178 FILLER_0_12_15
*1179 FILLER_0_12_158
*1180 FILLER_0_12_175
*1181 FILLER_0_12_184
*1182 FILLER_0_12_211
*1183 FILLER_0_12_224
*1184 FILLER_0_12_236
*1185 FILLER_0_12_253
*1186 FILLER_0_12_263
*1187 FILLER_0_12_27
*1188 FILLER_0_12_3
*1189 FILLER_0_12_309
*1190 FILLER_0_12_349
*1191 FILLER_0_12_45
*1192 FILLER_0_12_67
*1193 FILLER_0_12_76
*1194 FILLER_0_12_85
*1195 FILLER_0_12_97
*1196 FILLER_0_13_110
*1197 FILLER_0_13_135
*1198 FILLER_0_13_140
*1199 FILLER_0_13_15
*1200 FILLER_0_13_163
*1201 FILLER_0_13_167
*1202 FILLER_0_13_169
*1203 FILLER_0_13_173
*1204 FILLER_0_13_181
*1205 FILLER_0_13_187
*1206 FILLER_0_13_217
*1207 FILLER_0_13_223
*1208 FILLER_0_13_225
*1209 FILLER_0_13_23
*1210 FILLER_0_13_237
*1211 FILLER_0_13_243
*1212 FILLER_0_13_258
*1213 FILLER_0_13_270
*1214 FILLER_0_13_278
*1215 FILLER_0_13_295
*1216 FILLER_0_13_3
*1217 FILLER_0_13_307
*1218 FILLER_0_13_345
*1219 FILLER_0_13_68
*1220 FILLER_0_13_80
*1221 FILLER_0_13_84
*1222 FILLER_0_13_90
*1223 FILLER_0_14_101
*1224 FILLER_0_14_113
*1225 FILLER_0_14_125
*1226 FILLER_0_14_160
*1227 FILLER_0_14_172
*1228 FILLER_0_14_184
*1229 FILLER_0_14_188
*1230 FILLER_0_14_197
*1231 FILLER_0_14_235
*1232 FILLER_0_14_26
*1233 FILLER_0_14_262
*1234 FILLER_0_14_274
*1235 FILLER_0_14_282
*1236 FILLER_0_14_288
*1237 FILLER_0_14_29
*1238 FILLER_0_14_3
*1239 FILLER_0_14_300
*1240 FILLER_0_14_347
*1241 FILLER_0_14_9
*1242 FILLER_0_15_109
*1243 FILLER_0_15_128
*1244 FILLER_0_15_13
*1245 FILLER_0_15_134
*1246 FILLER_0_15_166
*1247 FILLER_0_15_169
*1248 FILLER_0_15_189
*1249 FILLER_0_15_193
*1250 FILLER_0_15_201
*1251 FILLER_0_15_220
*1252 FILLER_0_15_225
*1253 FILLER_0_15_233
*1254 FILLER_0_15_241
*1255 FILLER_0_15_249
*1256 FILLER_0_15_271
*1257 FILLER_0_15_279
*1258 FILLER_0_15_290
*1259 FILLER_0_15_298
*1260 FILLER_0_15_3
*1261 FILLER_0_15_306
*1262 FILLER_0_15_31
*1263 FILLER_0_15_317
*1264 FILLER_0_15_349
*1265 FILLER_0_15_35
*1266 FILLER_0_15_52
*1267 FILLER_0_15_64
*1268 FILLER_0_15_82
*1269 FILLER_0_15_96
*1270 FILLER_0_16_11
*1271 FILLER_0_16_118
*1272 FILLER_0_16_124
*1273 FILLER_0_16_132
*1274 FILLER_0_16_141
*1275 FILLER_0_16_162
*1276 FILLER_0_16_176
*1277 FILLER_0_16_186
*1278 FILLER_0_16_194
*1279 FILLER_0_16_197
*1280 FILLER_0_16_208
*1281 FILLER_0_16_227
*1282 FILLER_0_16_239
*1283 FILLER_0_16_261
*1284 FILLER_0_16_276
*1285 FILLER_0_16_286
*1286 FILLER_0_16_3
*1287 FILLER_0_16_301
*1288 FILLER_0_16_307
*1289 FILLER_0_16_309
*1290 FILLER_0_16_321
*1291 FILLER_0_16_327
*1292 FILLER_0_16_337
*1293 FILLER_0_16_349
*1294 FILLER_0_16_65
*1295 FILLER_0_16_69
*1296 FILLER_0_16_78
*1297 FILLER_0_16_92
*1298 FILLER_0_17_107
*1299 FILLER_0_17_111
*1300 FILLER_0_17_119
*1301 FILLER_0_17_128
*1302 FILLER_0_17_15
*1303 FILLER_0_17_157
*1304 FILLER_0_17_165
*1305 FILLER_0_17_174
*1306 FILLER_0_17_197
*1307 FILLER_0_17_206
*1308 FILLER_0_17_210
*1309 FILLER_0_17_236
*1310 FILLER_0_17_260
*1311 FILLER_0_17_268
*1312 FILLER_0_17_3
*1313 FILLER_0_17_301
*1314 FILLER_0_17_313
*1315 FILLER_0_17_321
*1316 FILLER_0_17_337
*1317 FILLER_0_17_349
*1318 FILLER_0_17_55
*1319 FILLER_0_17_73
*1320 FILLER_0_17_90
*1321 FILLER_0_18_106
*1322 FILLER_0_18_11
*1323 FILLER_0_18_112
*1324 FILLER_0_18_116
*1325 FILLER_0_18_121
*1326 FILLER_0_18_125
*1327 FILLER_0_18_129
*1328 FILLER_0_18_137
*1329 FILLER_0_18_145
*1330 FILLER_0_18_157
*1331 FILLER_0_18_168
*1332 FILLER_0_18_180
*1333 FILLER_0_18_191
*1334 FILLER_0_18_195
*1335 FILLER_0_18_211
*1336 FILLER_0_18_219
*1337 FILLER_0_18_225
*1338 FILLER_0_18_233
*1339 FILLER_0_18_243
*1340 FILLER_0_18_251
*1341 FILLER_0_18_253
*1342 FILLER_0_18_272
*1343 FILLER_0_18_280
*1344 FILLER_0_18_284
*1345 FILLER_0_18_3
*1346 FILLER_0_18_300
*1347 FILLER_0_18_338
*1348 FILLER_0_18_350
*1349 FILLER_0_18_50
*1350 FILLER_0_18_58
*1351 FILLER_0_18_65
*1352 FILLER_0_18_75
*1353 FILLER_0_19_110
*1354 FILLER_0_19_127
*1355 FILLER_0_19_139
*1356 FILLER_0_19_15
*1357 FILLER_0_19_161
*1358 FILLER_0_19_169
*1359 FILLER_0_19_181
*1360 FILLER_0_19_193
*1361 FILLER_0_19_210
*1362 FILLER_0_19_216
*1363 FILLER_0_19_23
*1364 FILLER_0_19_232
*1365 FILLER_0_19_267
*1366 FILLER_0_19_279
*1367 FILLER_0_19_281
*1368 FILLER_0_19_293
*1369 FILLER_0_19_3
*1370 FILLER_0_19_302
*1371 FILLER_0_19_310
*1372 FILLER_0_19_347
*1373 FILLER_0_19_57
*1374 FILLER_0_19_69
*1375 FILLER_0_19_84
*1376 FILLER_0_19_98
*1377 FILLER_0_1_113
*1378 FILLER_0_1_119
*1379 FILLER_0_1_129
*1380 FILLER_0_1_15
*1381 FILLER_0_1_164
*1382 FILLER_0_1_169
*1383 FILLER_0_1_178
*1384 FILLER_0_1_186
*1385 FILLER_0_1_212
*1386 FILLER_0_1_225
*1387 FILLER_0_1_248
*1388 FILLER_0_1_254
*1389 FILLER_0_1_27
*1390 FILLER_0_1_286
*1391 FILLER_0_1_3
*1392 FILLER_0_1_300
*1393 FILLER_0_1_308
*1394 FILLER_0_1_335
*1395 FILLER_0_1_337
*1396 FILLER_0_1_349
*1397 FILLER_0_1_39
*1398 FILLER_0_1_60
*1399 FILLER_0_1_79
*1400 FILLER_0_1_91
*1401 FILLER_0_20_113
*1402 FILLER_0_20_131
*1403 FILLER_0_20_139
*1404 FILLER_0_20_141
*1405 FILLER_0_20_147
*1406 FILLER_0_20_15
*1407 FILLER_0_20_167
*1408 FILLER_0_20_173
*1409 FILLER_0_20_19
*1410 FILLER_0_20_194
*1411 FILLER_0_20_197
*1412 FILLER_0_20_217
*1413 FILLER_0_20_249
*1414 FILLER_0_20_253
*1415 FILLER_0_20_259
*1416 FILLER_0_20_270
*1417 FILLER_0_20_276
*1418 FILLER_0_20_282
*1419 FILLER_0_20_294
*1420 FILLER_0_20_3
*1421 FILLER_0_20_302
*1422 FILLER_0_20_323
*1423 FILLER_0_20_332
*1424 FILLER_0_20_57
*1425 FILLER_0_20_67
*1426 FILLER_0_20_93
*1427 FILLER_0_21_11
*1428 FILLER_0_21_134
*1429 FILLER_0_21_142
*1430 FILLER_0_21_173
*1431 FILLER_0_21_178
*1432 FILLER_0_21_186
*1433 FILLER_0_21_222
*1434 FILLER_0_21_225
*1435 FILLER_0_21_251
*1436 FILLER_0_21_263
*1437 FILLER_0_21_269
*1438 FILLER_0_21_277
*1439 FILLER_0_21_290
*1440 FILLER_0_21_3
*1441 FILLER_0_21_318
*1442 FILLER_0_21_326
*1443 FILLER_0_21_337
*1444 FILLER_0_21_346
*1445 FILLER_0_21_350
*1446 FILLER_0_21_53
*1447 FILLER_0_21_62
*1448 FILLER_0_21_75
*1449 FILLER_0_21_84
*1450 FILLER_0_22_11
*1451 FILLER_0_22_129
*1452 FILLER_0_22_138
*1453 FILLER_0_22_141
*1454 FILLER_0_22_149
*1455 FILLER_0_22_165
*1456 FILLER_0_22_180
*1457 FILLER_0_22_192
*1458 FILLER_0_22_214
*1459 FILLER_0_22_220
*1460 FILLER_0_22_245
*1461 FILLER_0_22_251
*1462 FILLER_0_22_253
*1463 FILLER_0_22_265
*1464 FILLER_0_22_275
*1465 FILLER_0_22_29
*1466 FILLER_0_22_3
*1467 FILLER_0_22_307
*1468 FILLER_0_22_347
*1469 FILLER_0_22_40
*1470 FILLER_0_22_49
*1471 FILLER_0_22_56
*1472 FILLER_0_22_60
*1473 FILLER_0_22_82
*1474 FILLER_0_22_85
*1475 FILLER_0_22_97
*1476 FILLER_0_23_111
*1477 FILLER_0_23_113
*1478 FILLER_0_23_136
*1479 FILLER_0_23_144
*1480 FILLER_0_23_15
*1481 FILLER_0_23_154
*1482 FILLER_0_23_160
*1483 FILLER_0_23_185
*1484 FILLER_0_23_197
*1485 FILLER_0_23_209
*1486 FILLER_0_23_221
*1487 FILLER_0_23_225
*1488 FILLER_0_23_232
*1489 FILLER_0_23_240
*1490 FILLER_0_23_249
*1491 FILLER_0_23_253
*1492 FILLER_0_23_261
*1493 FILLER_0_23_269
*1494 FILLER_0_23_294
*1495 FILLER_0_23_3
*1496 FILLER_0_23_306
*1497 FILLER_0_23_337
*1498 FILLER_0_23_34
*1499 FILLER_0_23_345
*1500 FILLER_0_23_349
*1501 FILLER_0_23_49
*1502 FILLER_0_23_55
*1503 FILLER_0_23_57
*1504 FILLER_0_23_67
*1505 FILLER_0_23_80
*1506 FILLER_0_23_92
*1507 FILLER_0_24_11
*1508 FILLER_0_24_112
*1509 FILLER_0_24_157
*1510 FILLER_0_24_185
*1511 FILLER_0_24_193
*1512 FILLER_0_24_197
*1513 FILLER_0_24_205
*1514 FILLER_0_24_214
*1515 FILLER_0_24_222
*1516 FILLER_0_24_248
*1517 FILLER_0_24_253
*1518 FILLER_0_24_265
*1519 FILLER_0_24_284
*1520 FILLER_0_24_292
*1521 FILLER_0_24_3
*1522 FILLER_0_24_302
*1523 FILLER_0_24_315
*1524 FILLER_0_24_32
*1525 FILLER_0_24_348
*1526 FILLER_0_24_76
*1527 FILLER_0_24_85
*1528 FILLER_0_25_134
*1529 FILLER_0_25_15
*1530 FILLER_0_25_150
*1531 FILLER_0_25_169
*1532 FILLER_0_25_186
*1533 FILLER_0_25_195
*1534 FILLER_0_25_207
*1535 FILLER_0_25_21
*1536 FILLER_0_25_222
*1537 FILLER_0_25_225
*1538 FILLER_0_25_243
*1539 FILLER_0_25_276
*1540 FILLER_0_25_293
*1541 FILLER_0_25_3
*1542 FILLER_0_25_337
*1543 FILLER_0_25_349
*1544 FILLER_0_25_49
*1545 FILLER_0_25_87
*1546 FILLER_0_25_93
*1547 FILLER_0_26_104
*1548 FILLER_0_26_127
*1549 FILLER_0_26_141
*1550 FILLER_0_26_15
*1551 FILLER_0_26_160
*1552 FILLER_0_26_218
*1553 FILLER_0_26_238
*1554 FILLER_0_26_250
*1555 FILLER_0_26_253
*1556 FILLER_0_26_265
*1557 FILLER_0_26_269
*1558 FILLER_0_26_27
*1559 FILLER_0_26_29
*1560 FILLER_0_26_3
*1561 FILLER_0_26_335
*1562 FILLER_0_26_347
*1563 FILLER_0_26_52
*1564 FILLER_0_26_81
*1565 FILLER_0_26_85
*1566 FILLER_0_27_110
*1567 FILLER_0_27_120
*1568 FILLER_0_27_124
*1569 FILLER_0_27_169
*1570 FILLER_0_27_198
*1571 FILLER_0_27_202
*1572 FILLER_0_27_221
*1573 FILLER_0_27_225
*1574 FILLER_0_27_260
*1575 FILLER_0_27_281
*1576 FILLER_0_27_293
*1577 FILLER_0_27_3
*1578 FILLER_0_27_334
*1579 FILLER_0_27_337
*1580 FILLER_0_27_349
*1581 FILLER_0_27_44
*1582 FILLER_0_27_78
*1583 FILLER_0_27_84
*1584 FILLER_0_27_89
*1585 FILLER_0_27_93
*1586 FILLER_0_28_11
*1587 FILLER_0_28_117
*1588 FILLER_0_28_139
*1589 FILLER_0_28_141
*1590 FILLER_0_28_168
*1591 FILLER_0_28_180
*1592 FILLER_0_28_197
*1593 FILLER_0_28_226
*1594 FILLER_0_28_239
*1595 FILLER_0_28_243
*1596 FILLER_0_28_250
*1597 FILLER_0_28_263
*1598 FILLER_0_28_269
*1599 FILLER_0_28_290
*1600 FILLER_0_28_3
*1601 FILLER_0_28_302
*1602 FILLER_0_28_309
*1603 FILLER_0_28_340
*1604 FILLER_0_28_348
*1605 FILLER_0_28_45
*1606 FILLER_0_28_72
*1607 FILLER_0_28_90
*1608 FILLER_0_29_11
*1609 FILLER_0_29_141
*1610 FILLER_0_29_160
*1611 FILLER_0_29_169
*1612 FILLER_0_29_181
*1613 FILLER_0_29_193
*1614 FILLER_0_29_218
*1615 FILLER_0_29_225
*1616 FILLER_0_29_237
*1617 FILLER_0_29_252
*1618 FILLER_0_29_267
*1619 FILLER_0_29_279
*1620 FILLER_0_29_291
*1621 FILLER_0_29_3
*1622 FILLER_0_29_303
*1623 FILLER_0_29_309
*1624 FILLER_0_29_34
*1625 FILLER_0_29_349
*1626 FILLER_0_29_46
*1627 FILLER_0_29_54
*1628 FILLER_0_29_57
*1629 FILLER_0_29_93
*1630 FILLER_0_2_107
*1631 FILLER_0_2_127
*1632 FILLER_0_2_138
*1633 FILLER_0_2_141
*1634 FILLER_0_2_15
*1635 FILLER_0_2_181
*1636 FILLER_0_2_197
*1637 FILLER_0_2_208
*1638 FILLER_0_2_225
*1639 FILLER_0_2_23
*1640 FILLER_0_2_234
*1641 FILLER_0_2_250
*1642 FILLER_0_2_253
*1643 FILLER_0_2_27
*1644 FILLER_0_2_29
*1645 FILLER_0_2_3
*1646 FILLER_0_2_309
*1647 FILLER_0_2_319
*1648 FILLER_0_2_340
*1649 FILLER_0_2_348
*1650 FILLER_0_2_41
*1651 FILLER_0_2_47
*1652 FILLER_0_2_65
*1653 FILLER_0_2_85
*1654 FILLER_0_30_100
*1655 FILLER_0_30_11
*1656 FILLER_0_30_132
*1657 FILLER_0_30_157
*1658 FILLER_0_30_169
*1659 FILLER_0_30_181
*1660 FILLER_0_30_193
*1661 FILLER_0_30_207
*1662 FILLER_0_30_216
*1663 FILLER_0_30_228
*1664 FILLER_0_30_232
*1665 FILLER_0_30_240
*1666 FILLER_0_30_261
*1667 FILLER_0_30_270
*1668 FILLER_0_30_278
*1669 FILLER_0_30_294
*1670 FILLER_0_30_3
*1671 FILLER_0_30_309
*1672 FILLER_0_30_320
*1673 FILLER_0_30_343
*1674 FILLER_0_30_37
*1675 FILLER_0_30_43
*1676 FILLER_0_30_55
*1677 FILLER_0_30_59
*1678 FILLER_0_30_81
*1679 FILLER_0_30_92
*1680 FILLER_0_31_100
*1681 FILLER_0_31_108
*1682 FILLER_0_31_113
*1683 FILLER_0_31_145
*1684 FILLER_0_31_154
*1685 FILLER_0_31_160
*1686 FILLER_0_31_186
*1687 FILLER_0_31_220
*1688 FILLER_0_31_225
*1689 FILLER_0_31_247
*1690 FILLER_0_31_265
*1691 FILLER_0_31_279
*1692 FILLER_0_31_281
*1693 FILLER_0_31_3
*1694 FILLER_0_31_311
*1695 FILLER_0_31_334
*1696 FILLER_0_31_337
*1697 FILLER_0_31_349
*1698 FILLER_0_31_53
*1699 FILLER_0_31_57
*1700 FILLER_0_31_92
*1701 FILLER_0_32_104
*1702 FILLER_0_32_123
*1703 FILLER_0_32_135
*1704 FILLER_0_32_139
*1705 FILLER_0_32_141
*1706 FILLER_0_32_149
*1707 FILLER_0_32_15
*1708 FILLER_0_32_157
*1709 FILLER_0_32_182
*1710 FILLER_0_32_197
*1711 FILLER_0_32_229
*1712 FILLER_0_32_238
*1713 FILLER_0_32_244
*1714 FILLER_0_32_251
*1715 FILLER_0_32_264
*1716 FILLER_0_32_274
*1717 FILLER_0_32_282
*1718 FILLER_0_32_29
*1719 FILLER_0_32_3
*1720 FILLER_0_32_303
*1721 FILLER_0_32_309
*1722 FILLER_0_32_342
*1723 FILLER_0_32_350
*1724 FILLER_0_32_43
*1725 FILLER_0_32_55
*1726 FILLER_0_32_73
*1727 FILLER_0_32_82
*1728 FILLER_0_32_90
*1729 FILLER_0_33_108
*1730 FILLER_0_33_11
*1731 FILLER_0_33_134
*1732 FILLER_0_33_146
*1733 FILLER_0_33_169
*1734 FILLER_0_33_186
*1735 FILLER_0_33_194
*1736 FILLER_0_33_219
*1737 FILLER_0_33_223
*1738 FILLER_0_33_232
*1739 FILLER_0_33_244
*1740 FILLER_0_33_250
*1741 FILLER_0_33_260
*1742 FILLER_0_33_272
*1743 FILLER_0_33_28
*1744 FILLER_0_33_281
*1745 FILLER_0_33_293
*1746 FILLER_0_33_3
*1747 FILLER_0_33_305
*1748 FILLER_0_33_317
*1749 FILLER_0_33_334
*1750 FILLER_0_33_337
*1751 FILLER_0_33_349
*1752 FILLER_0_33_46
*1753 FILLER_0_33_54
*1754 FILLER_0_33_85
*1755 FILLER_0_34_11
*1756 FILLER_0_34_114
*1757 FILLER_0_34_139
*1758 FILLER_0_34_154
*1759 FILLER_0_34_182
*1760 FILLER_0_34_188
*1761 FILLER_0_34_19
*1762 FILLER_0_34_197
*1763 FILLER_0_34_219
*1764 FILLER_0_34_231
*1765 FILLER_0_34_269
*1766 FILLER_0_34_277
*1767 FILLER_0_34_294
*1768 FILLER_0_34_3
*1769 FILLER_0_34_306
*1770 FILLER_0_34_337
*1771 FILLER_0_34_349
*1772 FILLER_0_34_53
*1773 FILLER_0_34_64
*1774 FILLER_0_34_78
*1775 FILLER_0_34_85
*1776 FILLER_0_35_101
*1777 FILLER_0_35_113
*1778 FILLER_0_35_122
*1779 FILLER_0_35_132
*1780 FILLER_0_35_144
*1781 FILLER_0_35_166
*1782 FILLER_0_35_169
*1783 FILLER_0_35_191
*1784 FILLER_0_35_197
*1785 FILLER_0_35_203
*1786 FILLER_0_35_207
*1787 FILLER_0_35_219
*1788 FILLER_0_35_223
*1789 FILLER_0_35_225
*1790 FILLER_0_35_23
*1791 FILLER_0_35_237
*1792 FILLER_0_35_254
*1793 FILLER_0_35_266
*1794 FILLER_0_35_297
*1795 FILLER_0_35_3
*1796 FILLER_0_35_309
*1797 FILLER_0_35_317
*1798 FILLER_0_35_337
*1799 FILLER_0_35_349
*1800 FILLER_0_35_64
*1801 FILLER_0_35_76
*1802 FILLER_0_35_82
*1803 FILLER_0_35_90
*1804 FILLER_0_36_109
*1805 FILLER_0_36_11
*1806 FILLER_0_36_125
*1807 FILLER_0_36_137
*1808 FILLER_0_36_141
*1809 FILLER_0_36_149
*1810 FILLER_0_36_189
*1811 FILLER_0_36_195
*1812 FILLER_0_36_197
*1813 FILLER_0_36_205
*1814 FILLER_0_36_222
*1815 FILLER_0_36_230
*1816 FILLER_0_36_251
*1817 FILLER_0_36_253
*1818 FILLER_0_36_259
*1819 FILLER_0_36_3
*1820 FILLER_0_36_302
*1821 FILLER_0_36_341
*1822 FILLER_0_36_349
*1823 FILLER_0_36_60
*1824 FILLER_0_36_68
*1825 FILLER_0_37_11
*1826 FILLER_0_37_113
*1827 FILLER_0_37_123
*1828 FILLER_0_37_131
*1829 FILLER_0_37_140
*1830 FILLER_0_37_159
*1831 FILLER_0_37_167
*1832 FILLER_0_37_169
*1833 FILLER_0_37_198
*1834 FILLER_0_37_220
*1835 FILLER_0_37_234
*1836 FILLER_0_37_273