*SPEF "ieee 1481-1999"
*DESIGN "tt_um_kskyou"
*DATE "11:11:11 Fri 11 11, 1111"
*VENDOR "OpenRCX"
*PROGRAM "Parallel Extraction"
*VERSION "1.0"
*DESIGN_FLOW "NAME_SCOPE LOCAL" "PIN_CAP NONE"
*DIVIDER /
*DELIMITER :
*BUS_DELIMITER []
*T_UNIT 1 NS
*C_UNIT 1 PF
*R_UNIT 1 OHM
*L_UNIT 1 HENRY

*NAME_MAP
*3 clk
*4 ena
*5 rst_n
*6 ui_in[0]
*7 ui_in[1]
*8 ui_in[2]
*9 ui_in[3]
*10 ui_in[4]
*11 ui_in[5]
*12 ui_in[6]
*13 ui_in[7]
*14 uio_in[0]
*15 uio_in[1]
*16 uio_in[2]
*17 uio_in[3]
*18 uio_in[4]
*19 uio_in[5]
*20 uio_in[6]
*21 uio_in[7]
*22 net19
*23 net20
*24 net21
*25 net22
*26 net23
*27 net24
*28 net25
*29 net26
*30 net27
*31 net28
*32 net29
*33 net30
*34 net31
*35 net32
*36 net33
*37 net34
*38 uo_out[0]
*39 uo_out[1]
*40 uo_out[2]
*41 uo_out[3]
*42 uo_out[4]
*43 uo_out[5]
*44 uo_out[6]
*45 net35
*46 D\[0\]
*47 D\[10\]
*48 D\[11\]
*49 D\[12\]
*50 D\[13\]
*51 D\[1\]
*52 D\[2\]
*53 D\[3\]
*54 D\[4\]
*55 D\[5\]
*56 D\[6\]
*57 D\[7\]
*58 D\[8\]
*59 D\[9\]
*60 Q
*61 R\[0\]
*62 R\[1\]
*63 R\[2\]
*64 R\[3\]
*65 R\[4\]
*66 R\[5\]
*67 R\[6\]
*68 R\[7\]
*69 R\[8\]
*70 _0000_
*71 _0001_
*72 _0002_
*73 _0003_
*74 _0004_
*75 _0005_
*76 _0006_
*77 _0007_
*78 _0008_
*79 _0009_
*80 _0010_
*81 _0011_
*82 _0012_
*83 _0013_
*84 _0014_
*85 _0015_
*86 _0016_
*87 _0017_
*88 _0018_
*89 _0019_
*90 _0020_
*91 _0021_
*92 _0022_
*93 _0023_
*94 _0024_
*95 _0025_
*96 _0026_
*97 _0027_
*98 _0028_
*99 _0029_
*100 _0030_
*101 _0031_
*102 _0032_
*103 _0033_
*104 _0034_
*105 _0035_
*106 _0036_
*107 _0037_
*108 _0038_
*109 _0039_
*110 _0040_
*111 _0041_
*112 _0042_
*113 _0043_
*114 _0044_
*115 _0045_
*116 _0046_
*117 _0047_
*118 _0048_
*119 _0049_
*120 _0050_
*121 _0051_
*122 _0052_
*123 _0053_
*124 _0054_
*125 _0055_
*126 _0056_
*127 _0057_
*128 _0058_
*129 _0059_
*130 _0060_
*131 _0061_
*132 _0062_
*133 _0063_
*134 _0064_
*135 _0065_
*136 _0066_
*137 _0067_
*138 _0068_
*139 _0069_
*140 _0070_
*141 _0071_
*142 _0072_
*143 _0073_
*144 _0074_
*145 _0075_
*146 _0076_
*147 _0077_
*148 _0078_
*149 _0079_
*150 _0080_
*151 _0081_
*152 _0082_
*153 _0083_
*154 _0084_
*155 _0085_
*156 _0086_
*157 _0087_
*158 _0088_
*159 _0089_
*160 _0090_
*161 _0091_
*162 _0092_
*163 _0093_
*164 _0094_
*165 _0095_
*166 _0096_
*167 _0097_
*168 _0098_
*169 _0099_
*170 _0100_
*171 _0101_
*172 _0102_
*173 _0103_
*174 _0104_
*175 _0105_
*176 _0106_
*177 _0107_
*178 _0108_
*179 _0109_
*180 _0110_
*181 _0111_
*182 _0112_
*183 _0113_
*184 _0114_
*185 _0115_
*186 _0116_
*187 _0117_
*188 _0118_
*189 _0119_
*190 _0120_
*191 _0121_
*192 _0122_
*193 _0123_
*194 _0124_
*195 _0125_
*196 _0126_
*197 _0127_
*198 _0128_
*199 _0129_
*200 _0130_
*201 _0131_
*202 _0132_
*203 _0133_
*204 _0134_
*205 _0135_
*206 _0136_
*207 _0137_
*208 _0138_
*209 _0139_
*210 _0140_
*211 _0141_
*212 _0142_
*213 _0143_
*214 _0144_
*215 _0145_
*216 _0146_
*217 _0147_
*218 _0148_
*219 _0149_
*220 _0150_
*221 _0151_
*222 _0152_
*223 _0153_
*224 _0154_
*225 _0155_
*226 _0156_
*227 _0157_
*228 _0158_
*229 _0159_
*230 _0160_
*231 _0161_
*232 _0162_
*233 _0163_
*234 _0164_
*235 _0165_
*236 _0166_
*237 _0167_
*238 _0168_
*239 _0169_
*240 _0170_
*241 _0171_
*242 _0172_
*243 _0173_
*244 _0174_
*245 _0175_
*246 _0176_
*247 _0177_
*248 _0178_
*249 _0179_
*250 _0180_
*251 _0181_
*252 _0182_
*253 _0183_
*254 _0184_
*255 _0185_
*256 _0186_
*257 _0187_
*258 _0188_
*259 _0189_
*260 _0190_
*261 _0191_
*262 _0192_
*263 _0193_
*264 _0194_
*265 _0195_
*266 _0196_
*267 _0197_
*268 _0198_
*269 _0199_
*270 _0200_
*271 _0201_
*272 _0202_
*273 _0203_
*274 _0204_
*275 _0205_
*276 _0206_
*277 _0207_
*278 _0208_
*279 _0209_
*280 _0210_
*281 _0211_
*282 _0212_
*283 _0213_
*284 _0214_
*285 _0215_
*286 _0216_
*287 _0217_
*288 _0218_
*289 _0219_
*290 _0220_
*291 _0221_
*292 _0222_
*293 _0223_
*294 _0224_
*295 _0225_
*296 _0226_
*297 _0227_
*298 _0228_
*299 _0229_
*300 _0230_
*301 _0231_
*302 _0232_
*303 _0233_
*304 _0234_
*305 _0235_
*306 _0236_
*307 _0237_
*308 _0238_
*309 _0239_
*310 _0240_
*311 _0241_
*312 _0242_
*313 _0243_
*314 _0244_
*315 _0245_
*316 _0246_
*317 _0247_
*318 _0248_
*319 _0249_
*320 _0250_
*321 _0251_
*322 _0252_
*323 _0253_
*324 _0254_
*325 _0255_
*326 _0256_
*327 _0257_
*328 _0258_
*329 _0259_
*330 _0260_
*331 _0261_
*332 _0262_
*333 _0263_
*334 _0264_
*335 _0265_
*336 _0266_
*337 _0267_
*338 _0268_
*339 _0269_
*340 _0270_
*341 _0271_
*342 _0272_
*343 _0273_
*344 _0274_
*345 _0275_
*346 _0276_
*347 _0277_
*348 _0278_
*349 _0279_
*350 _0280_
*351 _0281_
*352 _0282_
*353 _0283_
*354 _0284_
*355 _0285_
*356 _0286_
*357 _0287_
*358 _0288_
*359 _0289_
*360 _0290_
*361 _0291_
*362 _0292_
*363 _0293_
*364 _0294_
*365 _0295_
*366 _0296_
*367 _0297_
*368 _0298_
*369 _0299_
*370 _0300_
*371 _0301_
*372 _0302_
*373 _0303_
*374 _0304_
*375 _0305_
*376 _0306_
*377 _0307_
*378 _0308_
*379 _0309_
*380 _0310_
*381 _0311_
*382 _0312_
*383 _0313_
*384 _0314_
*385 _0315_
*386 _0316_
*387 _0317_
*388 _0318_
*389 _0319_
*390 _0320_
*391 _0321_
*392 _0322_
*393 _0323_
*394 _0324_
*395 _0325_
*396 _0326_
*397 _0327_
*398 _0328_
*399 _0329_
*400 _0330_
*401 _0331_
*402 _0332_
*403 _0333_
*404 _0334_
*405 _0335_
*406 _0336_
*407 _0337_
*408 _0338_
*409 _0339_
*410 _0340_
*411 _0341_
*412 _0342_
*413 _0343_
*414 _0344_
*415 _0345_
*416 _0346_
*417 _0347_
*418 _0348_
*419 _0349_
*420 _0350_
*421 _0351_
*422 _0352_
*423 _0353_
*424 _0354_
*425 _0355_
*426 _0356_
*427 _0357_
*428 _0358_
*429 _0359_
*430 _0360_
*431 _0361_
*432 _0362_
*433 _0363_
*434 _0364_
*435 _0365_
*436 _0366_
*437 _0367_
*438 _0368_
*439 _0369_
*440 _0370_
*441 _0371_
*442 _0372_
*443 _0373_
*444 _0374_
*445 _0375_
*446 _0376_
*447 _0377_
*448 _0378_
*449 _0379_
*450 _0380_
*451 _0381_
*452 _0382_
*453 _0383_
*454 _0384_
*455 _0385_
*456 _0386_
*457 _0387_
*458 _0388_
*459 _0389_
*460 _0390_
*461 _0391_
*462 _0392_
*463 _0393_
*464 _0394_
*465 _0395_
*466 _0396_
*467 _0397_
*468 _0398_
*469 _0399_
*470 _0400_
*471 _0401_
*472 _0402_
*473 _0403_
*474 _0404_
*475 _0405_
*476 _0406_
*477 _0407_
*478 _0408_
*479 _0409_
*480 _0410_
*481 _0411_
*482 _0412_
*483 _0413_
*484 _0414_
*485 _0415_
*486 _0416_
*487 _0417_
*488 _0418_
*489 _0419_
*490 _0420_
*491 _0421_
*492 _0422_
*493 _0423_
*494 _0424_
*495 _0425_
*496 _0426_
*497 _0427_
*498 _0428_
*499 _0429_
*500 _0430_
*501 _0431_
*502 _0432_
*503 _0433_
*504 _0434_
*505 _0435_
*506 _0436_
*507 _0437_
*508 _0438_
*509 _0439_
*510 _0440_
*511 _0441_
*512 _0442_
*513 _0443_
*514 _0444_
*515 _0445_
*516 _0446_
*517 _0447_
*518 _0448_
*519 _0449_
*520 _0450_
*521 _0451_
*522 _0452_
*523 _0453_
*524 _0454_
*525 _0455_
*526 _0456_
*527 _0457_
*528 _0458_
*529 _0459_
*530 _0460_
*531 _0461_
*532 _0462_
*533 _0463_
*534 _0464_
*535 _0465_
*536 _0466_
*537 _0467_
*538 _0468_
*539 _0469_
*540 _0470_
*541 _0471_
*542 _0472_
*543 _0473_
*544 _0474_
*545 _0475_
*546 _0476_
*547 _0477_
*548 button0
*549 button1
*550 clknet_0_clk
*551 clknet_2_0__leaf_clk
*552 clknet_2_1__leaf_clk
*553 clknet_2_2__leaf_clk
*554 clknet_2_3__leaf_clk
*555 dev\.P\[0\]
*556 dev\.P\[10\]
*557 dev\.P\[1\]
*558 dev\.P\[2\]
*559 dev\.P\[3\]
*560 dev\.P\[4\]
*561 dev\.P\[5\]
*562 dev\.P\[6\]
*563 dev\.P\[7\]
*564 dev\.P\[8\]
*565 dev\.num\[0\]
*566 dev\.num\[1\]
*567 dev\.num\[2\]
*568 dev\.num\[3\]
*569 dev\.watch\[0\]
*570 dev\.watch\[1\]
*571 dev\.watch\[2\]
*572 dev\.watch\[3\]
*573 net1
*574 net10
*575 net11
*576 net12
*577 net13
*578 net14
*579 net15
*580 net16
*581 net17
*582 net18
*583 net2
*584 net3
*585 net36
*586 net37
*587 net38
*588 net39
*589 net4
*590 net40
*591 net41
*592 net42
*593 net43
*594 net44
*595 net45
*596 net46
*597 net47
*598 net48
*599 net49
*600 net5
*601 net50
*602 net51
*603 net52
*604 net53
*605 net54
*606 net55
*607 net56
*608 net57
*609 net58
*610 net59
*611 net6
*612 net7
*613 net8
*614 net9
*615 state\[0\]
*616 state\[1\]
*617 ANTENNA_1
*618 ANTENNA_2
*619 FILLER_0_0_109
*620 FILLER_0_0_113
*621 FILLER_0_0_125
*622 FILLER_0_0_137
*623 FILLER_0_0_141
*624 FILLER_0_0_15
*625 FILLER_0_0_153
*626 FILLER_0_0_165
*627 FILLER_0_0_169
*628 FILLER_0_0_181
*629 FILLER_0_0_193
*630 FILLER_0_0_197
*631 FILLER_0_0_209
*632 FILLER_0_0_221
*633 FILLER_0_0_225
*634 FILLER_0_0_237
*635 FILLER_0_0_249
*636 FILLER_0_0_253
*637 FILLER_0_0_265
*638 FILLER_0_0_27
*639 FILLER_0_0_277
*640 FILLER_0_0_281
*641 FILLER_0_0_29
*642 FILLER_0_0_293
*643 FILLER_0_0_3
*644 FILLER_0_0_305
*645 FILLER_0_0_309
*646 FILLER_0_0_321
*647 FILLER_0_0_333
*648 FILLER_0_0_337
*649 FILLER_0_0_349
*650 FILLER_0_0_41
*651 FILLER_0_0_53
*652 FILLER_0_0_57
*653 FILLER_0_0_69
*654 FILLER_0_0_81
*655 FILLER_0_0_85
*656 FILLER_0_0_97
*657 FILLER_0_10_109
*658 FILLER_0_10_121
*659 FILLER_0_10_133
*660 FILLER_0_10_139
*661 FILLER_0_10_141
*662 FILLER_0_10_15
*663 FILLER_0_10_153
*664 FILLER_0_10_165
*665 FILLER_0_10_177
*666 FILLER_0_10_189
*667 FILLER_0_10_195
*668 FILLER_0_10_197
*669 FILLER_0_10_209
*670 FILLER_0_10_221
*671 FILLER_0_10_233
*672 FILLER_0_10_245
*673 FILLER_0_10_251
*674 FILLER_0_10_253
*675 FILLER_0_10_265
*676 FILLER_0_10_27
*677 FILLER_0_10_277
*678 FILLER_0_10_289
*679 FILLER_0_10_29
*680 FILLER_0_10_3
*681 FILLER_0_10_301
*682 FILLER_0_10_307
*683 FILLER_0_10_309
*684 FILLER_0_10_321
*685 FILLER_0_10_333
*686 FILLER_0_10_345
*687 FILLER_0_10_41
*688 FILLER_0_10_53
*689 FILLER_0_10_65
*690 FILLER_0_10_77
*691 FILLER_0_10_83
*692 FILLER_0_10_85
*693 FILLER_0_10_97
*694 FILLER_0_11_105
*695 FILLER_0_11_111
*696 FILLER_0_11_113
*697 FILLER_0_11_125
*698 FILLER_0_11_137
*699 FILLER_0_11_149
*700 FILLER_0_11_15
*701 FILLER_0_11_161
*702 FILLER_0_11_167
*703 FILLER_0_11_169
*704 FILLER_0_11_181
*705 FILLER_0_11_193
*706 FILLER_0_11_205
*707 FILLER_0_11_217
*708 FILLER_0_11_223
*709 FILLER_0_11_225
*710 FILLER_0_11_237
*711 FILLER_0_11_249
*712 FILLER_0_11_261
*713 FILLER_0_11_27
*714 FILLER_0_11_273
*715 FILLER_0_11_279
*716 FILLER_0_11_281
*717 FILLER_0_11_293
*718 FILLER_0_11_3
*719 FILLER_0_11_305
*720 FILLER_0_11_317
*721 FILLER_0_11_329
*722 FILLER_0_11_335
*723 FILLER_0_11_337
*724 FILLER_0_11_349
*725 FILLER_0_11_39
*726 FILLER_0_11_51
*727 FILLER_0_11_55
*728 FILLER_0_11_57
*729 FILLER_0_11_69
*730 FILLER_0_11_81
*731 FILLER_0_11_93
*732 FILLER_0_12_109
*733 FILLER_0_12_121
*734 FILLER_0_12_133
*735 FILLER_0_12_139
*736 FILLER_0_12_141
*737 FILLER_0_12_15
*738 FILLER_0_12_153
*739 FILLER_0_12_165
*740 FILLER_0_12_177
*741 FILLER_0_12_189
*742 FILLER_0_12_195
*743 FILLER_0_12_197
*744 FILLER_0_12_209
*745 FILLER_0_12_221
*746 FILLER_0_12_233
*747 FILLER_0_12_245
*748 FILLER_0_12_251
*749 FILLER_0_12_253
*750 FILLER_0_12_265
*751 FILLER_0_12_27
*752 FILLER_0_12_277
*753 FILLER_0_12_289
*754 FILLER_0_12_29
*755 FILLER_0_12_3
*756 FILLER_0_12_301
*757 FILLER_0_12_307
*758 FILLER_0_12_309
*759 FILLER_0_12_321
*760 FILLER_0_12_333
*761 FILLER_0_12_345
*762 FILLER_0_12_41
*763 FILLER_0_12_53
*764 FILLER_0_12_65
*765 FILLER_0_12_77
*766 FILLER_0_12_83
*767 FILLER_0_12_85
*768 FILLER_0_12_97
*769 FILLER_0_13_105
*770 FILLER_0_13_111
*771 FILLER_0_13_113
*772 FILLER_0_13_125
*773 FILLER_0_13_137
*774 FILLER_0_13_149
*775 FILLER_0_13_15
*776 FILLER_0_13_161
*777 FILLER_0_13_167
*778 FILLER_0_13_169
*779 FILLER_0_13_181
*780 FILLER_0_13_193
*781 FILLER_0_13_205
*782 FILLER_0_13_217
*783 FILLER_0_13_223
*784 FILLER_0_13_225
*785 FILLER_0_13_237
*786 FILLER_0_13_249
*787 FILLER_0_13_261
*788 FILLER_0_13_27
*789 FILLER_0_13_273
*790 FILLER_0_13_279
*791 FILLER_0_13_281
*792 FILLER_0_13_293
*793 FILLER_0_13_3
*794 FILLER_0_13_305
*795 FILLER_0_13_317
*796 FILLER_0_13_329
*797 FILLER_0_13_335
*798 FILLER_0_13_337
*799 FILLER_0_13_349
*800 FILLER_0_13_39
*801 FILLER_0_13_51
*802 FILLER_0_13_55
*803 FILLER_0_13_57
*804 FILLER_0_13_69
*805 FILLER_0_13_81
*806 FILLER_0_13_93
*807 FILLER_0_14_109
*808 FILLER_0_14_121
*809 FILLER_0_14_133
*810 FILLER_0_14_139
*811 FILLER_0_14_141
*812 FILLER_0_14_15
*813 FILLER_0_14_153
*814 FILLER_0_14_159
*815 FILLER_0_14_167
*816 FILLER_0_14_179
*817 FILLER_0_14_191
*818 FILLER_0_14_195
*819 FILLER_0_14_209
*820 FILLER_0_14_217
*821 FILLER_0_14_226
*822 FILLER_0_14_234
*823 FILLER_0_14_240
*824 FILLER_0_14_259
*825 FILLER_0_14_27
*826 FILLER_0_14_273
*827 FILLER_0_14_281
*828 FILLER_0_14_289
*829 FILLER_0_14_29
*830 FILLER_0_14_3
*831 FILLER_0_14_301
*832 FILLER_0_14_307
*833 FILLER_0_14_309
*834 FILLER_0_14_321
*835 FILLER_0_14_333
*836 FILLER_0_14_345
*837 FILLER_0_14_41
*838 FILLER_0_14_53
*839 FILLER_0_14_65
*840 FILLER_0_14_77
*841 FILLER_0_14_83
*842 FILLER_0_14_85
*843 FILLER_0_14_97
*844 FILLER_0_15_105
*845 FILLER_0_15_111
*846 FILLER_0_15_113
*847 FILLER_0_15_120
*848 FILLER_0_15_132
*849 FILLER_0_15_138
*850 FILLER_0_15_146
*851 FILLER_0_15_15
*852 FILLER_0_15_160
*853 FILLER_0_15_169
*854 FILLER_0_15_185
*855 FILLER_0_15_200
*856 FILLER_0_15_212
*857 FILLER_0_15_267
*858 FILLER_0_15_27
*859 FILLER_0_15_271
*860 FILLER_0_15_278
*861 FILLER_0_15_289
*862 FILLER_0_15_3
*863 FILLER_0_15_304
*864 FILLER_0_15_316
*865 FILLER_0_15_328
*866 FILLER_0_15_337
*867 FILLER_0_15_349
*868 FILLER_0_15_39
*869 FILLER_0_15_51
*870 FILLER_0_15_55
*871 FILLER_0_15_57
*872 FILLER_0_15_69
*873 FILLER_0_15_81
*874 FILLER_0_15_93
*875 FILLER_0_16_101
*876 FILLER_0_16_126
*877 FILLER_0_16_138
*878 FILLER_0_16_149
*879 FILLER_0_16_15
*880 FILLER_0_16_161
*881 FILLER_0_16_173
*882 FILLER_0_16_185
*883 FILLER_0_16_193
*884 FILLER_0_16_197
*885 FILLER_0_16_203
*886 FILLER_0_16_217
*887 FILLER_0_16_231
*888 FILLER_0_16_239
*889 FILLER_0_16_251
*890 FILLER_0_16_253
*891 FILLER_0_16_267
*892 FILLER_0_16_27
*893 FILLER_0_16_271
*894 FILLER_0_16_282
*895 FILLER_0_16_29
*896 FILLER_0_16_3
*897 FILLER_0_16_307
*898 FILLER_0_16_309
*899 FILLER_0_16_313
*900 FILLER_0_16_327
*901 FILLER_0_16_339
*902 FILLER_0_16_41
*903 FILLER_0_16_53
*904 FILLER_0_16_65
*905 FILLER_0_16_77
*906 FILLER_0_16_83
*907 FILLER_0_16_85
*908 FILLER_0_16_93
*909 FILLER_0_17_113
*910 FILLER_0_17_125
*911 FILLER_0_17_144
*912 FILLER_0_17_15
*913 FILLER_0_17_153
*914 FILLER_0_17_157
*915 FILLER_0_17_162
*916 FILLER_0_17_176
*917 FILLER_0_17_193
*918 FILLER_0_17_210
*919 FILLER_0_17_221
*920 FILLER_0_17_238
*921 FILLER_0_17_255
*922 FILLER_0_17_27
*923 FILLER_0_17_275
*924 FILLER_0_17_279
*925 FILLER_0_17_288
*926 FILLER_0_17_296
*927 FILLER_0_17_3
*928 FILLER_0_17_300
*929 FILLER_0_17_312
*930 FILLER_0_17_328
*931 FILLER_0_17_337
*932 FILLER_0_17_349
*933 FILLER_0_17_39
*934 FILLER_0_17_51
*935 FILLER_0_17_55
*936 FILLER_0_17_57
*937 FILLER_0_17_69
*938 FILLER_0_17_81
*939 FILLER_0_17_85
*940 FILLER_0_18_108
*941 FILLER_0_18_120
*942 FILLER_0_18_126
*943 FILLER_0_18_134
*944 FILLER_0_18_141
*945 FILLER_0_18_149
*946 FILLER_0_18_15
*947 FILLER_0_18_158
*948 FILLER_0_18_173
*949 FILLER_0_18_185
*950 FILLER_0_18_193
*951 FILLER_0_18_210
*952 FILLER_0_18_222
*953 FILLER_0_18_234
*954 FILLER_0_18_246
*955 FILLER_0_18_253
*956 FILLER_0_18_257
*957 FILLER_0_18_267
*958 FILLER_0_18_27
*959 FILLER_0_18_279
*960 FILLER_0_18_29
*961 FILLER_0_18_3
*962 FILLER_0_18_309
*963 FILLER_0_18_321
*964 FILLER_0_18_333
*965 FILLER_0_18_345
*966 FILLER_0_18_41
*967 FILLER_0_18_53
*968 FILLER_0_18_65
*969 FILLER_0_18_77
*970 FILLER_0_18_83
*971 FILLER_0_18_85
*972 FILLER_0_18_96
*973 FILLER_0_19_126
*974 FILLER_0_19_135
*975 FILLER_0_19_142
*976 FILLER_0_19_15
*977 FILLER_0_19_153
*978 FILLER_0_19_165
*979 FILLER_0_19_169
*980 FILLER_0_19_181
*981 FILLER_0_19_190
*982 FILLER_0_19_202
*983 FILLER_0_19_214
*984 FILLER_0_19_222
*985 FILLER_0_19_225
*986 FILLER_0_19_239
*987 FILLER_0_19_264
*988 FILLER_0_19_27
*989 FILLER_0_19_272
*990 FILLER_0_19_279
*991 FILLER_0_19_285
*992 FILLER_0_19_297
*993 FILLER_0_19_3
*994 FILLER_0_19_309
*995 FILLER_0_19_328
*996 FILLER_0_19_337
*997 FILLER_0_19_349
*998 FILLER_0_19_39
*999 FILLER_0_19_51
*1000 FILLER_0_19_55
*1001 FILLER_0_19_57
*1002 FILLER_0_19_69
*1003 FILLER_0_19_81
*1004 FILLER_0_19_93
*1005 FILLER_0_1_105
*1006 FILLER_0_1_111
*1007 FILLER_0_1_113
*1008 FILLER_0_1_125
*1009 FILLER_0_1_137
*1010 FILLER_0_1_149
*1011 FILLER_0_1_15
*1012 FILLER_0_1_161
*1013 FILLER_0_1_167
*1014 FILLER_0_1_169
*1015 FILLER_0_1_181
*1016 FILLER_0_1_193
*1017 FILLER_0_1_205
*1018 FILLER_0_1_217
*1019 FILLER_0_1_223
*1020 FILLER_0_1_225
*1021 FILLER_0_1_237
*1022 FILLER_0_1_249
*1023 FILLER_0_1_261
*1024 FILLER_0_1_27
*1025 FILLER_0_1_273
*1026 FILLER_0_1_279
*1027 FILLER_0_1_281
*1028 FILLER_0_1_293
*1029 FILLER_0_1_3
*1030 FILLER_0_1_305
*1031 FILLER_0_1_317
*1032 FILLER_0_1_329
*1033 FILLER_0_1_335
*1034 FILLER_0_1_337
*1035 FILLER_0_1_349
*1036 FILLER_0_1_39
*1037 FILLER_0_1_51
*1038 FILLER_0_1_55
*1039 FILLER_0_1_57
*1040 FILLER_0_1_69
*1041 FILLER_0_1_81
*1042 FILLER_0_1_93
*1043 FILLER_0_20_108
*1044 FILLER_0_20_112
*1045 FILLER_0_20_126
*1046 FILLER_0_20_138
*1047 FILLER_0_20_141
*1048 FILLER_0_20_15
*1049 FILLER_0_20_160
*1050 FILLER_0_20_172
*1051 FILLER_0_20_184
*1052 FILLER_0_20_195
*1053 FILLER_0_20_197
*1054 FILLER_0_20_210
*1055 FILLER_0_20_236
*1056 FILLER_0_20_248
*1057 FILLER_0_20_253
*1058 FILLER_0_20_257
*1059 FILLER_0_20_263
*1060 FILLER_0_20_27
*1061 FILLER_0_20_275
*1062 FILLER_0_20_281
*1063 FILLER_0_20_29
*1064 FILLER_0_20_293
*1065 FILLER_0_20_297
*1066 FILLER_0_20_3
*1067 FILLER_0_20_309
*1068 FILLER_0_20_331
*1069 FILLER_0_20_343
*1070 FILLER_0_20_41
*1071 FILLER_0_20_53
*1072 FILLER_0_20_65
*1073 FILLER_0_20_77
*1074 FILLER_0_20_83
*1075 FILLER_0_20_85
*1076 FILLER_0_20_96
*1077 FILLER_0_21_102
*1078 FILLER_0_21_110
*1079 FILLER_0_21_113
*1080 FILLER_0_21_119
*1081 FILLER_0_21_146
*1082 FILLER_0_21_15
*1083 FILLER_0_21_169
*1084 FILLER_0_21_177
*1085 FILLER_0_21_191
*1086 FILLER_0_21_206
*1087 FILLER_0_21_218
*1088 FILLER_0_21_225
*1089 FILLER_0_21_233
*1090 FILLER_0_21_251
*1091 FILLER_0_21_259
*1092 FILLER_0_21_27
*1093 FILLER_0_21_270
*1094 FILLER_0_21_281
*1095 FILLER_0_21_290
*1096 FILLER_0_21_3
*1097 FILLER_0_21_302
*1098 FILLER_0_21_314
*1099 FILLER_0_21_323
*1100 FILLER_0_21_335
*1101 FILLER_0_21_337
*1102 FILLER_0_21_349
*1103 FILLER_0_21_39
*1104 FILLER_0_21_51
*1105 FILLER_0_21_55
*1106 FILLER_0_21_57
*1107 FILLER_0_21_69
*1108 FILLER_0_21_81
*1109 FILLER_0_22_101
*1110 FILLER_0_22_105
*1111 FILLER_0_22_124
*1112 FILLER_0_22_136
*1113 FILLER_0_22_141
*1114 FILLER_0_22_145
*1115 FILLER_0_22_15
*1116 FILLER_0_22_156
*1117 FILLER_0_22_166
*1118 FILLER_0_22_178
*1119 FILLER_0_22_193
*1120 FILLER_0_22_217
*1121 FILLER_0_22_243
*1122 FILLER_0_22_251
*1123 FILLER_0_22_253
*1124 FILLER_0_22_265
*1125 FILLER_0_22_27
*1126 FILLER_0_22_277
*1127 FILLER_0_22_29
*1128 FILLER_0_22_290
*1129 FILLER_0_22_298
*1130 FILLER_0_22_3
*1131 FILLER_0_22_341
*1132 FILLER_0_22_349
*1133 FILLER_0_22_41
*1134 FILLER_0_22_53
*1135 FILLER_0_22_65
*1136 FILLER_0_22_77
*1137 FILLER_0_22_83
*1138 FILLER_0_22_85
*1139 FILLER_0_22_89
*1140 FILLER_0_22_93
*1141 FILLER_0_23_109
*1142 FILLER_0_23_113
*1143 FILLER_0_23_121
*1144 FILLER_0_23_131
*1145 FILLER_0_23_139
*1146 FILLER_0_23_146
*1147 FILLER_0_23_15
*1148 FILLER_0_23_158
*1149 FILLER_0_23_165
*1150 FILLER_0_23_173
*1151 FILLER_0_23_181
*1152 FILLER_0_23_198
*1153 FILLER_0_23_205
*1154 FILLER_0_23_211
*1155 FILLER_0_23_223
*1156 FILLER_0_23_225
*1157 FILLER_0_23_237
*1158 FILLER_0_23_252
*1159 FILLER_0_23_27
*1160 FILLER_0_23_274
*1161 FILLER_0_23_281
*1162 FILLER_0_23_295
*1163 FILLER_0_23_3
*1164 FILLER_0_23_303
*1165 FILLER_0_23_314
*1166 FILLER_0_23_326
*1167 FILLER_0_23_330
*1168 FILLER_0_23_337
*1169 FILLER_0_23_349
*1170 FILLER_0_23_39
*1171 FILLER_0_23_51
*1172 FILLER_0_23_55
*1173 FILLER_0_23_57
*1174 FILLER_0_23_69
*1175 FILLER_0_23_81
*1176 FILLER_0_24_121
*1177 FILLER_0_24_141
*1178 FILLER_0_24_15
*1179 FILLER_0_24_161
*1180 FILLER_0_24_180
*1181 FILLER_0_24_192
*1182 FILLER_0_24_197
*1183 FILLER_0_24_216
*1184 FILLER_0_24_224
*1185 FILLER_0_24_245
*1186 FILLER_0_24_251
*1187 FILLER_0_24_253
*1188 FILLER_0_24_259
*1189 FILLER_0_24_263
*1190 FILLER_0_24_27
*1191 FILLER_0_24_275
*1192 FILLER_0_24_29
*1193 FILLER_0_24_295
*1194 FILLER_0_24_3
*1195 FILLER_0_24_307
*1196 FILLER_0_24_309
*1197 FILLER_0_24_325
*1198 FILLER_0_24_335
*1199 FILLER_0_24_345
*1200 FILLER_0_24_41
*1201 FILLER_0_24_53
*1202 FILLER_0_24_65
*1203 FILLER_0_24_77
*1204 FILLER_0_25_109
*1205 FILLER_0_25_113
*1206 FILLER_0_25_125
*1207 FILLER_0_25_138
*1208 FILLER_0_25_146
*1209 FILLER_0_25_15
*1210 FILLER_0_25_158
*1211 FILLER_0_25_164
*1212 FILLER_0_25_169
*1213 FILLER_0_25_177
*1214 FILLER_0_25_196
*1215 FILLER_0_25_208
*1216 FILLER_0_25_230
*1217 FILLER_0_25_242
*1218 FILLER_0_25_262
*1219 FILLER_0_25_27
*1220 FILLER_0_25_274
*1221 FILLER_0_25_281
*1222 FILLER_0_25_285
*1223 FILLER_0_25_296
*1224 FILLER_0_25_3
*1225 FILLER_0_25_308
*1226 FILLER_0_25_321
*1227 FILLER_0_25_333
*1228 FILLER_0_25_337
*1229 FILLER_0_25_349
*1230 FILLER_0_25_39
*1231 FILLER_0_25_57
*1232 FILLER_0_25_69
*1233 FILLER_0_25_73
*1234 FILLER_0_25_85
*1235 FILLER_0_25_97
*1236 FILLER_0_26_107
*1237 FILLER_0_26_120
*1238 FILLER_0_26_132
*1239 FILLER_0_26_145
*1240 FILLER_0_26_15
*1241 FILLER_0_26_157
*1242 FILLER_0_26_161
*1243 FILLER_0_26_168
*1244 FILLER_0_26_176
*1245 FILLER_0_26_193
*1246 FILLER_0_26_213
*1247 FILLER_0_26_250
*1248 FILLER_0_26_260
*1249 FILLER_0_26_27
*1250 FILLER_0_26_280
*1251 FILLER_0_26_284
*1252 FILLER_0_26_297
*1253 FILLER_0_26_3
*1254 FILLER_0_26_309
*1255 FILLER_0_26_32
*1256 FILLER_0_26_322
*1257 FILLER_0_26_326
*1258 FILLER_0_26_345
*1259 FILLER_0_26_52
*1260 FILLER_0_26_64
*1261 FILLER_0_26_81
*1262 FILLER_0_26_85
*1263 FILLER_0_26_92
*1264 FILLER_0_27_100
*1265 FILLER_0_27_121
*1266 FILLER_0_27_127
*1267 FILLER_0_27_139
*1268 FILLER_0_27_15
*1269 FILLER_0_27_154
*1270 FILLER_0_27_167
*1271 FILLER_0_27_176
*1272 FILLER_0_27_184
*1273 FILLER_0_27_190
*1274 FILLER_0_27_200
*1275 FILLER_0_27_21
*1276 FILLER_0_27_212
*1277 FILLER_0_27_229
*1278 FILLER_0_27_243
*1279 FILLER_0_27_254
*1280 FILLER_0_27_262
*1281 FILLER_0_27_274
*1282 FILLER_0_27_281
*1283 FILLER_0_27_292
*1284 FILLER_0_27_3
*1285 FILLER_0_27_305
*1286 FILLER_0_27_315
*1287 FILLER_0_27_327
*1288 FILLER_0_27_335
*1289 FILLER_0_27_337
*1290 FILLER_0_27_346
*1291 FILLER_0_27_350
*1292 FILLER_0_27_43
*1293 FILLER_0_27_66
*1294 FILLER_0_27_83
*1295 FILLER_0_28_108
*1296 FILLER_0_28_120
*1297 FILLER_0_28_138
*1298 FILLER_0_28_141
*1299 FILLER_0_28_15
*1300 FILLER_0_28_153
*1301 FILLER_0_28_159
*1302 FILLER_0_28_171
*1303 FILLER_0_28_183
*1304 FILLER_0_28_195
*1305 FILLER_0_28_204
*1306 FILLER_0_28_218
*1307 FILLER_0_28_224
*1308 FILLER_0_28_23
*1309 FILLER_0_28_232
*1310 FILLER_0_28_251
*1311 FILLER_0_28_259
*1312 FILLER_0_28_279
*1313 FILLER_0_28_287
*1314 FILLER_0_28_29
*1315 FILLER_0_28_299
*1316 FILLER_0_28_3
*1317 FILLER_0_28_307
*1318 FILLER_0_28_315
*1319 FILLER_0_28_324
*1320 FILLER_0_28_339
*1321 FILLER_0_28_41
*1322 FILLER_0_28_53
*1323 FILLER_0_28_65
*1324 FILLER_0_28_96
*1325 FILLER_0_29_105
*1326 FILLER_0_29_129
*1327 FILLER_0_29_137
*1328 FILLER_0_29_15
*1329 FILLER_0_29_160
*1330 FILLER_0_29_175
*1331 FILLER_0_29_187
*1332 FILLER_0_29_195
*1333 FILLER_0_29_221
*1334 FILLER_0_29_253
*1335 FILLER_0_29_265
*1336 FILLER_0_29_271
*1337 FILLER_0_29_279
*1338 FILLER_0_29_281
*1339 FILLER_0_29_289
*1340 FILLER_0_29_299
*1341 FILLER_0_29_3
*1342 FILLER_0_29_312
*1343 FILLER_0_29_324
*1344 FILLER_0_29_337
*1345 FILLER_0_29_349
*1346 FILLER_0_29_40
*1347 FILLER_0_29_53
*1348 FILLER_0_29_77
*1349 FILLER_0_29_83
*1350 FILLER_0_29_99
*1351 FILLER_0_2_109
*1352 FILLER_0_2_121
*1353 FILLER_0_2_133
*1354 FILLER_0_2_139
*1355 FILLER_0_2_141
*1356 FILLER_0_2_15
*1357 FILLER_0_2_153
*1358 FILLER_0_2_165
*1359 FILLER_0_2_177
*1360 FILLER_0_2_189
*1361 FILLER_0_2_195
*1362 FILLER_0_2_197
*1363 FILLER_0_2_209
*1364 FILLER_0_2_221
*1365 FILLER_0_2_233
*1366 FILLER_0_2_245
*1367 FILLER_0_2_251
*1368 FILLER_0_2_253
*1369 FILLER_0_2_265
*1370 FILLER_0_2_27
*1371 FILLER_0_2_277
*1372 FILLER_0_2_289
*1373 FILLER_0_2_29
*1374 FILLER_0_2_3
*1375 FILLER_0_2_301
*1376 FILLER_0_2_307
*1377 FILLER_0_2_309
*1378 FILLER_0_2_321
*1379 FILLER_0_2_333
*1380 FILLER_0_2_345
*1381 FILLER_0_2_41
*1382 FILLER_0_2_53
*1383 FILLER_0_2_65
*1384 FILLER_0_2_77
*1385 FILLER_0_2_83
*1386 FILLER_0_2_85
*1387 FILLER_0_2_97
*1388 FILLER_0_30_101
*1389 FILLER_0_30_113
*1390 FILLER_0_30_125
*1391 FILLER_0_30_13
*1392 FILLER_0_30_137
*1393 FILLER_0_30_141
*1394 FILLER_0_30_149
*1395 FILLER_0_30_157
*1396 FILLER_0_30_184
*1397 FILLER_0_30_204
*1398 FILLER_0_30_208
*1399 FILLER_0_30_212
*1400 FILLER_0_30_224
*1401 FILLER_0_30_232
*1402 FILLER_0_30_245
*1403 FILLER_0_30_25
*1404 FILLER_0_30_251
*1405 FILLER_0_30_253
*1406 FILLER_0_30_261
*1407 FILLER_0_30_286
*1408 FILLER_0_30_29
*1409 FILLER_0_30_294
*1410 FILLER_0_30_3
*1411 FILLER_0_30_302
*1412 FILLER_0_30_309
*1413 FILLER_0_30_328
*1414 FILLER_0_30_332
*1415 FILLER_0_30_347
*1416 FILLER_0_30_35
*1417 FILLER_0_30_39
*1418 FILLER_0_30_43
*1419 FILLER_0_30_55
*1420 FILLER_0_30_9
*1421 FILLER_0_31_119
*1422 FILLER_0_31_149
*1423 FILLER_0_31_155
*1424 FILLER_0_31_164
*1425 FILLER_0_31_199
*1426 FILLER_0_31_234
*1427 FILLER_0_31_243
*1428 FILLER_0_31_251
*1429 FILLER_0_31_275
*1430 FILLER_0_31_279
*1431 FILLER_0_31_281
*1432 FILLER_0_31_293
*1433 FILLER_0_31_3
*1434 FILLER_0_31_316
*1435 FILLER_0_31_329
*1436 FILLER_0_31_335
*1437 FILLER_0_31_337
*1438 FILLER_0_31_349
*1439 FILLER_0_31_51
*1440 FILLER_0_31_55
*1441 FILLER_0_31_57
*1442 FILLER_0_31_82
*1443 FILLER_0_31_86
*1444 FILLER_0_31_95
*1445 FILLER_0_32_113
*1446 FILLER_0_32_141
*1447 FILLER_0_32_145
*1448 FILLER_0_32_15
*1449 FILLER_0_32_173
*1450 FILLER_0_32_186
*1451 FILLER_0_32_194
*1452 FILLER_0_32_197
*1453 FILLER_0_32_211
*1454 FILLER_0_32_23
*1455 FILLER_0_32_231
*1456 FILLER_0_32_251
*1457 FILLER_0_32_253
*1458 FILLER_0_32_265
*1459 FILLER_0_32_274
*1460 FILLER_0_32_285
*1461 FILLER_0_32_29
*1462 FILLER_0_32_3
*1463 FILLER_0_32_304
*1464 FILLER_0_32_309
*1465 FILLER_0_32_319
*1466 FILLER_0_32_327
*1467 FILLER_0_32_347
*1468 FILLER_0_32_41
*1469 FILLER_0_32_53
*1470 FILLER_0_32_57
*1471 FILLER_0_32_69
*1472 FILLER_0_32_79
*1473 FILLER_0_32_83
*1474 FILLER_0_32_93
*1475 FILLER_0_33_126
*1476 FILLER_0_33_130
*1477 FILLER_0_33_138
*1478 FILLER_0_33_150
*1479 FILLER_0_33_162
*1480 FILLER_0_33_169
*1481 FILLER_0_33_181
*1482 FILLER_0_33_200
*1483 FILLER_0_33_21
*1484 FILLER_0_33_210
*1485 FILLER_0_33_216
*1486 FILLER_0_33_233
*1487 FILLER_0_33_242
*1488 FILLER_0_33_26
*1489 FILLER_0_33_269
*1490 FILLER_0_33_277
*1491 FILLER_0_33_290
*1492 FILLER_0_33_294
*1493 FILLER_0_33_3
*1494 FILLER_0_33_302
*1495 FILLER_0_33_314
*1496 FILLER_0_33_318
*1497 FILLER_0_33_327
*1498 FILLER_0_33_335
*1499 FILLER_0_33_345
*1500 FILLER_0_33_40
*1501 FILLER_0_33_46
*1502 FILLER_0_33_50
*1503 FILLER_0_33_60
*1504 FILLER_0_33_68
*1505 FILLER_0_33_78
*1506 FILLER_0_33_94
*1507 FILLER_0_34_103
*1508 FILLER_0_34_118
*1509 FILLER_0_34_126
*1510 FILLER_0_34_138
*1511 FILLER_0_34_141
*1512 FILLER_0_34_145
*1513 FILLER_0_34_153
*1514 FILLER_0_34_164
*1515 FILLER_0_34_183
*1516 FILLER_0_34_189
*1517 FILLER_0_34_226
*1518 FILLER_0_34_253
*1519 FILLER_0_34_259
*1520 FILLER_0_34_280
*1521 FILLER_0_34_29
*1522 FILLER_0_34_293
*1523 FILLER_0_34_330
*1524 FILLER_0_34_347
*1525 FILLER_0_34_39
*1526 FILLER_0_34_45
*1527 FILLER_0_34_54
*1528 FILLER_0_34_64
*1529 FILLER_0_34_76
*1530 FILLER_0_34_83
*1531 FILLER_0_34_85
*1532 FILLER_0_34_89
*1533 FILLER_0_35_103
*1534 FILLER_0_35_111
*1535 FILLER_0_35_123
*1536 FILLER_0_35_127
*1537 FILLER_0_35_135
*1538 FILLER_0_35_147
*1539 FILLER_0_35_15
*1540 FILLER_0_35_151
*1541 FILLER_0_35_159
*1542 FILLER_0_35_167
*1543 FILLER_0_35_173
*1544 FILLER_0_35_178
*1545 FILLER_0_35_19
*1546 FILLER_0_35_190
*1547 FILLER_0_35_200
*1548 FILLER_0_35_210
*1549 FILLER_0_35_222
*1550 FILLER_0_35_225
*1551 FILLER_0_35_245
*1552 FILLER_0_35_25
*1553 FILLER_0_35_257
*1554 FILLER_0_35_267
*1555 FILLER_0_35_278
*1556 FILLER_0_35_3
*1557 FILLER_0_35_305
*1558 FILLER_0_35_317
*1559 FILLER_0_35_324
*1560 FILLER_0_35_345
*1561 FILLER_0_35_41
*1562 FILLER_0_35_57
*1563 FILLER_0_35_65
*1564 FILLER_0_35_76
*1565 FILLER_0_35_88
*1566 FILLER_0_36_102
*1567 FILLER_0_36_107
*1568 FILLER_0_36_119
*1569 FILLER_0_36_125
*1570 FILLER_0_36_131
*1571 FILLER_0_36_141
*1572 FILLER_0_36_147
*1573 FILLER_0_36_15
*1574 FILLER_0_36_163
*1575 FILLER_0_36_171
*1576 FILLER_0_36_185
*1577 FILLER_0_36_193
*1578 FILLER_0_36_197
*1579 FILLER_0_36_201
*1580 FILLER_0_36_209
*1581 FILLER_0_36_222
*1582 FILLER_0_36_23
*1583 FILLER_0_36_243
*1584 FILLER_0_36_27
*1585 FILLER_0_36_272
*1586 FILLER_0_36_29
*1587 FILLER_0_36_3
*1588 FILLER_0_36_312
*1589 FILLER_0_36_348
*1590 FILLER_0_36_37
*1591 FILLER_0_36_45
*1592 FILLER_0_36_80
*1593 FILLER_0_36_96
*1594 FILLER_0_37_130
*1595 FILLER_0_37_15
*1596 FILLER_0_37_152
*1597 FILLER_0_37_159
*1598 FILLER_0_37_167
*1599 FILLER_0_37_185
*1600 FILLER_0_37_191
*1601 FILLER_0_37_204
*1602 FILLER_0_37_21
*1603 FILLER_0_37_254
*1604 FILLER_0_37_286
*1605 FILLER_0_37_3
*1606 FILLER_0_37_303
*1607 FILLER_0_37_345
*1608 FILLER_0_37_55
*1609 FILLER_0_37_57
*1610 FILLER_0_37_69
*1611 FILLER_0_37_79
*1612 FILLER_0_37_91
*1613 FILLER_0_37_99
*1614 FILLER_0_38_104
*1615 FILLER_0_38_111
*1616 FILLER_0_38_122
*1617 FILLER_0_38_128
*1618 FILLER_0_38_134
*1619 FILLER_0_38_141
*1620 FILLER_0_38_15
*1621 FILLER_0_38_158
*1622 FILLER_0_38_180
*1623 FILLER_0_38_185
*1624 FILLER_0_38_193
*1625 FILLER_0_38_228
*1626 FILLER_0_38_248
*1627 FILLER_0_38_27
*1628 FILLER_0_38_278
*1629 FILLER_0_38_281
*1630 FILLER_0_38_29
*1631 FILLER_0_38_3
*1632 FILLER_0_38_306
*1633 FILLER_0_38_337
*1634 FILLER_0_38_349
*1635 FILLER_0_38_43
*1636 FILLER_0_38_55
*1637 FILLER_0_38_57
*1638 FILLER_0_38_68
*1639 FILLER_0_38_74
*1640 FILLER_0_38_80
*1641 FILLER_0_38_88
*1642 FILLER_0_38_92
*1643 FILLER_0_38_98
*1644 FILLER_0_3_105
*1645 FILLER_0_3_111
*1646 FILLER_0_3_113
*1647 FILLER_0_3_125
*1648 FILLER_0_3_137
*1649 FILLER_0_3_149
*1650 FILLER_0_3_15
*1651 FILLER_0_3_161
*1652 FILLER_0_3_167
*1653 FILLER_0_3_169
*1654 FILLER_0_3_181
*1655 FILLER_0_3_193
*1656 FILLER_0_3_205
*1657 FILLER_0_3_217
*1658 FILLER_0_3_223
*1659 FILLER_0_3_225
*1660 FILLER_0_3_237
*1661 FILLER_0_3_249
*1662 FILLER_0_3_261
*1663 FILLER_0_3_27
*1664 FILLER_0_3_273
*1665 FILLER_0_3_279
*1666 FILLER_0_3_281
*1667 FILLER_0_3_293
*1668 FILLER_0_3_3