*SPEF "ieee 1481-1999"
*DESIGN "tt_um_mabhari_seven_segment_seconds"
*DATE "11:11:11 Fri 11 11, 1111"
*VENDOR "OpenRCX"
*PROGRAM "Parallel Extraction"
*VERSION "1.0"
*DESIGN_FLOW "NAME_SCOPE LOCAL" "PIN_CAP NONE"
*DIVIDER /
*DELIMITER :
*BUS_DELIMITER []
*T_UNIT 1 NS
*C_UNIT 1 PF
*R_UNIT 1 OHM
*L_UNIT 1 HENRY

*NAME_MAP
*3 clk
*4 ena
*5 rst_n
*6 ui_in[0]
*7 ui_in[1]
*8 ui_in[2]
*9 ui_in[3]
*10 ui_in[4]
*11 ui_in[5]
*12 ui_in[6]
*13 ui_in[7]
*14 uio_in[0]
*15 uio_in[1]
*16 uio_in[2]
*17 uio_in[3]
*18 uio_in[4]
*19 uio_in[5]
*20 uio_in[6]
*21 uio_in[7]
*22 net16
*23 net17
*24 net18
*25 net19
*26 net28
*27 net29
*28 net30
*29 net31
*30 net20
*31 net21
*32 net22
*33 net23
*34 net24
*35 net25
*36 net26
*37 uio_out[7]
*38 uo_out[0]
*39 uo_out[1]
*40 uo_out[2]
*41 uo_out[3]
*42 uo_out[4]
*43 uo_out[5]
*44 uo_out[6]
*45 net27
*46 _000_
*47 _001_
*48 _002_
*49 _003_
*50 _004_
*51 _005_
*52 _006_
*53 _007_
*54 _008_
*55 _009_
*56 _010_
*57 _011_
*58 _012_
*59 _013_
*60 _014_
*61 _015_
*62 _016_
*63 _017_
*64 _018_
*65 _019_
*66 _020_
*67 _021_
*68 _022_
*69 _023_
*70 _024_
*71 _025_
*72 _026_
*73 _027_
*74 _028_
*75 _029_
*76 _030_
*77 _031_
*78 _032_
*79 _033_
*80 _034_
*81 _035_
*82 _036_
*83 _037_
*84 _038_
*85 _039_
*86 _040_
*87 _041_
*88 _042_
*89 _043_
*90 _044_
*91 _045_
*92 _046_
*93 _047_
*94 _048_
*95 _049_
*96 _050_
*97 _051_
*98 _052_
*99 _053_
*100 _054_
*101 _055_
*102 _056_
*103 _057_
*104 _058_
*105 _059_
*106 _060_
*107 _061_
*108 _062_
*109 _063_
*110 _064_
*111 _065_
*112 _066_
*113 _067_
*114 _068_
*115 _069_
*116 _070_
*117 _071_
*118 _072_
*119 _073_
*120 _074_
*121 _075_
*122 _076_
*123 _077_
*124 _078_
*125 _079_
*126 _080_
*127 _081_
*128 _082_
*129 _083_
*130 _084_
*131 _085_
*132 _086_
*133 _087_
*134 _088_
*135 _089_
*136 _090_
*137 _091_
*138 _092_
*139 _093_
*140 _094_
*141 _095_
*142 _096_
*143 _097_
*144 _098_
*145 _099_
*146 _100_
*147 _101_
*148 _102_
*149 _103_
*150 _104_
*151 _105_
*152 _106_
*153 _107_
*154 _108_
*155 _109_
*156 _110_
*157 _111_
*158 _112_
*159 _113_
*160 _114_
*161 _115_
*162 _116_
*163 _117_
*164 _118_
*165 _119_
*166 _120_
*167 _121_
*168 _122_
*169 _123_
*170 _124_
*171 _125_
*172 _126_
*173 _127_
*174 _128_
*175 _129_
*176 _130_
*177 _131_
*178 _132_
*179 _133_
*180 _134_
*181 _135_
*182 _136_
*183 _137_
*184 _138_
*185 _139_
*186 _140_
*187 _141_
*188 _142_
*189 _143_
*190 _144_
*191 _145_
*192 _146_
*193 _147_
*194 _148_
*195 _149_
*196 _150_
*197 _151_
*198 _152_
*199 _153_
*200 _154_
*201 _155_
*202 _156_
*203 _157_
*204 _158_
*205 _159_
*206 _160_
*207 _161_
*208 _162_
*209 _163_
*210 _164_
*211 _165_
*212 _166_
*213 _167_
*214 _168_
*215 _169_
*216 _170_
*217 _171_
*218 _172_
*219 _173_
*220 _174_
*221 _175_
*222 _176_
*223 _177_
*224 _178_
*225 _179_
*226 _180_
*227 _181_
*228 c_divider\.Clk_Out
*229 c_divider\.Counter\[0\]
*230 c_divider\.Counter\[10\]
*231 c_divider\.Counter\[11\]
*232 c_divider\.Counter\[12\]
*233 c_divider\.Counter\[13\]
*234 c_divider\.Counter\[14\]
*235 c_divider\.Counter\[15\]
*236 c_divider\.Counter\[16\]
*237 c_divider\.Counter\[17\]
*238 c_divider\.Counter\[18\]
*239 c_divider\.Counter\[19\]
*240 c_divider\.Counter\[1\]
*241 c_divider\.Counter\[20\]
*242 c_divider\.Counter\[21\]
*243 c_divider\.Counter\[22\]
*244 c_divider\.Counter\[23\]
*245 c_divider\.Counter\[2\]
*246 c_divider\.Counter\[3\]
*247 c_divider\.Counter\[4\]
*248 c_divider\.Counter\[5\]
*249 c_divider\.Counter\[6\]
*250 c_divider\.Counter\[7\]
*251 c_divider\.Counter\[8\]
*252 c_divider\.Counter\[9\]
*253 clknet_0_clk
*254 clknet_1_0__leaf_clk
*255 clknet_1_1__leaf_clk
*256 net1
*257 net10
*258 net11
*259 net12
*260 net13
*261 net14
*262 net15
*263 net2
*264 net3
*265 net32
*266 net33
*267 net34
*268 net35
*269 net36
*270 net37
*271 net38
*272 net39
*273 net4
*274 net40
*275 net41
*276 net42
*277 net43
*278 net5
*279 net6
*280 net7
*281 net8
*282 net9
*283 s_timer\.E_Start
*284 s_timer\.S0_Q\[0\]
*285 s_timer\.S0_Q\[1\]
*286 s_timer\.S0_Q\[2\]
*287 s_timer\.S0_Q\[3\]
*288 s_timer\.S1_Q\[0\]
*289 s_timer\.S1_Q\[1\]
*290 s_timer\.S1_Q\[2\]
*291 s_timer\.S1_Q\[3\]
*292 s_timer\.Time_Out
*293 s_timer\.Time_Reg\[0\]
*294 s_timer\.Time_Reg\[1\]
*295 s_timer\.Time_Reg\[2\]
*296 s_timer\.Time_Reg\[3\]
*297 s_timer\.Time_Reg\[4\]
*298 s_timer\.Time_Reg\[5\]
*299 s_timer\.Time_Reg\[6\]
*300 s_timer\.Time_Reg\[7\]
*301 FILLER_0_0_109
*302 FILLER_0_0_113
*303 FILLER_0_0_125
*304 FILLER_0_0_137
*305 FILLER_0_0_141
*306 FILLER_0_0_15
*307 FILLER_0_0_153
*308 FILLER_0_0_165
*309 FILLER_0_0_169
*310 FILLER_0_0_181
*311 FILLER_0_0_193
*312 FILLER_0_0_197
*313 FILLER_0_0_209
*314 FILLER_0_0_221
*315 FILLER_0_0_225
*316 FILLER_0_0_237
*317 FILLER_0_0_249
*318 FILLER_0_0_253
*319 FILLER_0_0_265
*320 FILLER_0_0_27
*321 FILLER_0_0_277
*322 FILLER_0_0_281
*323 FILLER_0_0_29
*324 FILLER_0_0_293
*325 FILLER_0_0_3
*326 FILLER_0_0_305
*327 FILLER_0_0_309
*328 FILLER_0_0_321
*329 FILLER_0_0_333
*330 FILLER_0_0_337
*331 FILLER_0_0_349
*332 FILLER_0_0_41
*333 FILLER_0_0_53
*334 FILLER_0_0_57
*335 FILLER_0_0_69
*336 FILLER_0_0_81
*337 FILLER_0_0_85
*338 FILLER_0_0_97
*339 FILLER_0_10_109
*340 FILLER_0_10_121
*341 FILLER_0_10_133
*342 FILLER_0_10_139
*343 FILLER_0_10_141
*344 FILLER_0_10_15
*345 FILLER_0_10_153
*346 FILLER_0_10_165
*347 FILLER_0_10_177
*348 FILLER_0_10_189
*349 FILLER_0_10_195
*350 FILLER_0_10_197
*351 FILLER_0_10_209
*352 FILLER_0_10_221
*353 FILLER_0_10_233
*354 FILLER_0_10_245
*355 FILLER_0_10_251
*356 FILLER_0_10_253
*357 FILLER_0_10_265
*358 FILLER_0_10_27
*359 FILLER_0_10_277
*360 FILLER_0_10_289
*361 FILLER_0_10_29
*362 FILLER_0_10_3
*363 FILLER_0_10_301
*364 FILLER_0_10_307
*365 FILLER_0_10_309
*366 FILLER_0_10_321
*367 FILLER_0_10_333
*368 FILLER_0_10_345
*369 FILLER_0_10_41
*370 FILLER_0_10_53
*371 FILLER_0_10_65
*372 FILLER_0_10_77
*373 FILLER_0_10_83
*374 FILLER_0_10_85
*375 FILLER_0_10_97
*376 FILLER_0_11_105
*377 FILLER_0_11_111
*378 FILLER_0_11_113
*379 FILLER_0_11_125
*380 FILLER_0_11_137
*381 FILLER_0_11_149
*382 FILLER_0_11_15
*383 FILLER_0_11_161
*384 FILLER_0_11_167
*385 FILLER_0_11_169
*386 FILLER_0_11_181
*387 FILLER_0_11_193
*388 FILLER_0_11_205
*389 FILLER_0_11_217
*390 FILLER_0_11_223
*391 FILLER_0_11_225
*392 FILLER_0_11_237
*393 FILLER_0_11_249
*394 FILLER_0_11_261
*395 FILLER_0_11_27
*396 FILLER_0_11_273
*397 FILLER_0_11_279
*398 FILLER_0_11_281
*399 FILLER_0_11_293
*400 FILLER_0_11_3
*401 FILLER_0_11_305
*402 FILLER_0_11_317
*403 FILLER_0_11_329
*404 FILLER_0_11_335
*405 FILLER_0_11_337
*406 FILLER_0_11_349
*407 FILLER_0_11_39
*408 FILLER_0_11_51
*409 FILLER_0_11_55
*410 FILLER_0_11_57
*411 FILLER_0_11_69
*412 FILLER_0_11_81
*413 FILLER_0_11_93
*414 FILLER_0_12_109
*415 FILLER_0_12_121
*416 FILLER_0_12_133
*417 FILLER_0_12_139
*418 FILLER_0_12_141
*419 FILLER_0_12_15
*420 FILLER_0_12_153
*421 FILLER_0_12_165
*422 FILLER_0_12_177
*423 FILLER_0_12_189
*424 FILLER_0_12_195
*425 FILLER_0_12_197
*426 FILLER_0_12_209
*427 FILLER_0_12_221
*428 FILLER_0_12_233
*429 FILLER_0_12_245
*430 FILLER_0_12_251
*431 FILLER_0_12_253
*432 FILLER_0_12_265
*433 FILLER_0_12_27
*434 FILLER_0_12_277
*435 FILLER_0_12_289
*436 FILLER_0_12_29
*437 FILLER_0_12_3
*438 FILLER_0_12_301
*439 FILLER_0_12_307
*440 FILLER_0_12_309
*441 FILLER_0_12_321
*442 FILLER_0_12_333
*443 FILLER_0_12_345
*444 FILLER_0_12_41
*445 FILLER_0_12_53
*446 FILLER_0_12_65
*447 FILLER_0_12_77
*448 FILLER_0_12_83
*449 FILLER_0_12_85
*450 FILLER_0_12_97
*451 FILLER_0_13_105
*452 FILLER_0_13_111
*453 FILLER_0_13_113
*454 FILLER_0_13_125
*455 FILLER_0_13_137
*456 FILLER_0_13_149
*457 FILLER_0_13_15
*458 FILLER_0_13_161
*459 FILLER_0_13_167
*460 FILLER_0_13_169
*461 FILLER_0_13_181
*462 FILLER_0_13_193
*463 FILLER_0_13_205
*464 FILLER_0_13_217
*465 FILLER_0_13_223
*466 FILLER_0_13_225
*467 FILLER_0_13_237
*468 FILLER_0_13_249
*469 FILLER_0_13_261
*470 FILLER_0_13_27
*471 FILLER_0_13_273
*472 FILLER_0_13_279
*473 FILLER_0_13_281
*474 FILLER_0_13_293
*475 FILLER_0_13_3
*476 FILLER_0_13_305
*477 FILLER_0_13_317
*478 FILLER_0_13_329
*479 FILLER_0_13_335
*480 FILLER_0_13_337
*481 FILLER_0_13_349
*482 FILLER_0_13_39
*483 FILLER_0_13_51
*484 FILLER_0_13_55
*485 FILLER_0_13_57
*486 FILLER_0_13_69
*487 FILLER_0_13_81
*488 FILLER_0_13_93
*489 FILLER_0_14_109
*490 FILLER_0_14_121
*491 FILLER_0_14_133
*492 FILLER_0_14_139
*493 FILLER_0_14_141
*494 FILLER_0_14_15
*495 FILLER_0_14_153
*496 FILLER_0_14_165
*497 FILLER_0_14_177
*498 FILLER_0_14_189
*499 FILLER_0_14_195
*500 FILLER_0_14_197
*501 FILLER_0_14_209
*502 FILLER_0_14_221
*503 FILLER_0_14_233
*504 FILLER_0_14_245
*505 FILLER_0_14_251
*506 FILLER_0_14_253
*507 FILLER_0_14_265
*508 FILLER_0_14_27
*509 FILLER_0_14_277
*510 FILLER_0_14_289
*511 FILLER_0_14_29
*512 FILLER_0_14_3
*513 FILLER_0_14_301
*514 FILLER_0_14_307
*515 FILLER_0_14_309
*516 FILLER_0_14_321
*517 FILLER_0_14_333
*518 FILLER_0_14_345
*519 FILLER_0_14_41
*520 FILLER_0_14_53
*521 FILLER_0_14_65
*522 FILLER_0_14_77
*523 FILLER_0_14_83
*524 FILLER_0_14_85
*525 FILLER_0_14_97
*526 FILLER_0_15_105
*527 FILLER_0_15_111
*528 FILLER_0_15_113
*529 FILLER_0_15_125
*530 FILLER_0_15_137
*531 FILLER_0_15_149
*532 FILLER_0_15_15
*533 FILLER_0_15_161
*534 FILLER_0_15_167
*535 FILLER_0_15_169
*536 FILLER_0_15_181
*537 FILLER_0_15_193
*538 FILLER_0_15_205
*539 FILLER_0_15_217
*540 FILLER_0_15_223
*541 FILLER_0_15_225
*542 FILLER_0_15_237
*543 FILLER_0_15_249
*544 FILLER_0_15_261
*545 FILLER_0_15_27
*546 FILLER_0_15_273
*547 FILLER_0_15_279
*548 FILLER_0_15_281
*549 FILLER_0_15_293
*550 FILLER_0_15_3
*551 FILLER_0_15_305
*552 FILLER_0_15_317
*553 FILLER_0_15_329
*554 FILLER_0_15_335
*555 FILLER_0_15_337
*556 FILLER_0_15_349
*557 FILLER_0_15_39
*558 FILLER_0_15_51
*559 FILLER_0_15_55
*560 FILLER_0_15_57
*561 FILLER_0_15_69
*562 FILLER_0_15_81
*563 FILLER_0_15_93
*564 FILLER_0_16_109
*565 FILLER_0_16_121
*566 FILLER_0_16_133
*567 FILLER_0_16_139
*568 FILLER_0_16_141
*569 FILLER_0_16_15
*570 FILLER_0_16_153
*571 FILLER_0_16_165
*572 FILLER_0_16_177
*573 FILLER_0_16_189
*574 FILLER_0_16_195
*575 FILLER_0_16_197
*576 FILLER_0_16_209
*577 FILLER_0_16_221
*578 FILLER_0_16_233
*579 FILLER_0_16_245
*580 FILLER_0_16_251
*581 FILLER_0_16_253
*582 FILLER_0_16_265
*583 FILLER_0_16_27
*584 FILLER_0_16_277
*585 FILLER_0_16_289
*586 FILLER_0_16_29
*587 FILLER_0_16_3
*588 FILLER_0_16_301
*589 FILLER_0_16_307
*590 FILLER_0_16_309
*591 FILLER_0_16_321
*592 FILLER_0_16_333
*593 FILLER_0_16_345
*594 FILLER_0_16_41
*595 FILLER_0_16_53
*596 FILLER_0_16_65
*597 FILLER_0_16_77
*598 FILLER_0_16_83
*599 FILLER_0_16_85
*600 FILLER_0_16_97
*601 FILLER_0_17_105
*602 FILLER_0_17_111
*603 FILLER_0_17_113
*604 FILLER_0_17_125
*605 FILLER_0_17_137
*606 FILLER_0_17_149
*607 FILLER_0_17_15
*608 FILLER_0_17_161
*609 FILLER_0_17_167
*610 FILLER_0_17_169
*611 FILLER_0_17_181
*612 FILLER_0_17_193
*613 FILLER_0_17_205
*614 FILLER_0_17_217
*615 FILLER_0_17_223
*616 FILLER_0_17_225
*617 FILLER_0_17_237
*618 FILLER_0_17_249
*619 FILLER_0_17_261
*620 FILLER_0_17_27
*621 FILLER_0_17_273
*622 FILLER_0_17_279
*623 FILLER_0_17_281
*624 FILLER_0_17_293
*625 FILLER_0_17_3
*626 FILLER_0_17_305
*627 FILLER_0_17_317
*628 FILLER_0_17_329
*629 FILLER_0_17_335
*630 FILLER_0_17_337
*631 FILLER_0_17_349
*632 FILLER_0_17_39
*633 FILLER_0_17_51
*634 FILLER_0_17_55
*635 FILLER_0_17_57
*636 FILLER_0_17_69
*637 FILLER_0_17_81
*638 FILLER_0_17_93
*639 FILLER_0_18_109
*640 FILLER_0_18_121
*641 FILLER_0_18_133
*642 FILLER_0_18_139
*643 FILLER_0_18_141
*644 FILLER_0_18_15
*645 FILLER_0_18_153
*646 FILLER_0_18_165
*647 FILLER_0_18_177
*648 FILLER_0_18_189
*649 FILLER_0_18_195
*650 FILLER_0_18_197
*651 FILLER_0_18_209
*652 FILLER_0_18_221
*653 FILLER_0_18_233
*654 FILLER_0_18_245
*655 FILLER_0_18_251
*656 FILLER_0_18_253
*657 FILLER_0_18_265
*658 FILLER_0_18_27
*659 FILLER_0_18_277
*660 FILLER_0_18_285
*661 FILLER_0_18_29
*662 FILLER_0_18_291
*663 FILLER_0_18_3
*664 FILLER_0_18_303
*665 FILLER_0_18_307
*666 FILLER_0_18_309
*667 FILLER_0_18_321
*668 FILLER_0_18_329
*669 FILLER_0_18_348
*670 FILLER_0_18_41
*671 FILLER_0_18_53
*672 FILLER_0_18_65
*673 FILLER_0_18_77
*674 FILLER_0_18_83
*675 FILLER_0_18_85
*676 FILLER_0_18_97
*677 FILLER_0_19_105
*678 FILLER_0_19_111
*679 FILLER_0_19_113
*680 FILLER_0_19_125
*681 FILLER_0_19_137
*682 FILLER_0_19_149
*683 FILLER_0_19_15
*684 FILLER_0_19_161
*685 FILLER_0_19_167
*686 FILLER_0_19_169
*687 FILLER_0_19_181
*688 FILLER_0_19_193
*689 FILLER_0_19_205
*690 FILLER_0_19_217
*691 FILLER_0_19_223
*692 FILLER_0_19_225
*693 FILLER_0_19_237
*694 FILLER_0_19_245
*695 FILLER_0_19_262
*696 FILLER_0_19_27
*697 FILLER_0_19_281
*698 FILLER_0_19_3
*699 FILLER_0_19_306
*700 FILLER_0_19_318
*701 FILLER_0_19_327
*702 FILLER_0_19_333
*703 FILLER_0_19_337
*704 FILLER_0_19_349
*705 FILLER_0_19_39
*706 FILLER_0_19_51
*707 FILLER_0_19_55
*708 FILLER_0_19_57
*709 FILLER_0_19_69
*710 FILLER_0_19_81
*711 FILLER_0_19_93
*712 FILLER_0_1_105
*713 FILLER_0_1_111
*714 FILLER_0_1_113
*715 FILLER_0_1_125
*716 FILLER_0_1_137
*717 FILLER_0_1_149
*718 FILLER_0_1_15
*719 FILLER_0_1_161
*720 FILLER_0_1_167
*721 FILLER_0_1_169
*722 FILLER_0_1_181
*723 FILLER_0_1_193
*724 FILLER_0_1_205
*725 FILLER_0_1_217
*726 FILLER_0_1_223
*727 FILLER_0_1_225
*728 FILLER_0_1_237
*729 FILLER_0_1_249
*730 FILLER_0_1_261
*731 FILLER_0_1_27
*732 FILLER_0_1_273
*733 FILLER_0_1_279
*734 FILLER_0_1_281
*735 FILLER_0_1_293
*736 FILLER_0_1_3
*737 FILLER_0_1_305
*738 FILLER_0_1_317
*739 FILLER_0_1_329
*740 FILLER_0_1_335
*741 FILLER_0_1_337
*742 FILLER_0_1_349
*743 FILLER_0_1_39
*744 FILLER_0_1_51
*745 FILLER_0_1_55
*746 FILLER_0_1_57
*747 FILLER_0_1_69
*748 FILLER_0_1_81
*749 FILLER_0_1_93
*750 FILLER_0_20_109
*751 FILLER_0_20_121
*752 FILLER_0_20_133
*753 FILLER_0_20_139
*754 FILLER_0_20_141
*755 FILLER_0_20_15
*756 FILLER_0_20_153
*757 FILLER_0_20_165
*758 FILLER_0_20_177
*759 FILLER_0_20_189
*760 FILLER_0_20_195
*761 FILLER_0_20_197
*762 FILLER_0_20_209
*763 FILLER_0_20_217
*764 FILLER_0_20_237
*765 FILLER_0_20_249
*766 FILLER_0_20_253
*767 FILLER_0_20_265
*768 FILLER_0_20_27
*769 FILLER_0_20_276
*770 FILLER_0_20_288
*771 FILLER_0_20_29
*772 FILLER_0_20_3
*773 FILLER_0_20_300
*774 FILLER_0_20_304
*775 FILLER_0_20_309
*776 FILLER_0_20_317
*777 FILLER_0_20_348
*778 FILLER_0_20_41
*779 FILLER_0_20_53
*780 FILLER_0_20_65
*781 FILLER_0_20_77
*782 FILLER_0_20_83
*783 FILLER_0_20_85
*784 FILLER_0_20_97
*785 FILLER_0_21_105
*786 FILLER_0_21_111
*787 FILLER_0_21_113
*788 FILLER_0_21_125
*789 FILLER_0_21_137
*790 FILLER_0_21_149
*791 FILLER_0_21_15
*792 FILLER_0_21_161
*793 FILLER_0_21_167
*794 FILLER_0_21_169
*795 FILLER_0_21_181
*796 FILLER_0_21_193
*797 FILLER_0_21_205
*798 FILLER_0_21_217
*799 FILLER_0_21_223
*800 FILLER_0_21_231
*801 FILLER_0_21_240
*802 FILLER_0_21_244
*803 FILLER_0_21_256
*804 FILLER_0_21_27
*805 FILLER_0_21_273
*806 FILLER_0_21_287
*807 FILLER_0_21_3
*808 FILLER_0_21_301
*809 FILLER_0_21_305
*810 FILLER_0_21_323
*811 FILLER_0_21_332
*812 FILLER_0_21_345
*813 FILLER_0_21_39
*814 FILLER_0_21_51
*815 FILLER_0_21_55
*816 FILLER_0_21_57
*817 FILLER_0_21_69
*818 FILLER_0_21_81
*819 FILLER_0_21_93
*820 FILLER_0_22_109
*821 FILLER_0_22_121
*822 FILLER_0_22_133
*823 FILLER_0_22_139
*824 FILLER_0_22_141
*825 FILLER_0_22_15
*826 FILLER_0_22_153
*827 FILLER_0_22_165
*828 FILLER_0_22_177
*829 FILLER_0_22_189
*830 FILLER_0_22_195
*831 FILLER_0_22_197
*832 FILLER_0_22_221
*833 FILLER_0_22_258
*834 FILLER_0_22_27
*835 FILLER_0_22_280
*836 FILLER_0_22_29
*837 FILLER_0_22_299
*838 FILLER_0_22_3
*839 FILLER_0_22_307
*840 FILLER_0_22_309
*841 FILLER_0_22_317
*842 FILLER_0_22_331
*843 FILLER_0_22_41
*844 FILLER_0_22_53
*845 FILLER_0_22_65
*846 FILLER_0_22_77
*847 FILLER_0_22_83
*848 FILLER_0_22_85
*849 FILLER_0_22_97
*850 FILLER_0_23_105
*851 FILLER_0_23_111
*852 FILLER_0_23_113
*853 FILLER_0_23_125
*854 FILLER_0_23_137
*855 FILLER_0_23_149
*856 FILLER_0_23_15
*857 FILLER_0_23_161
*858 FILLER_0_23_167
*859 FILLER_0_23_169
*860 FILLER_0_23_181
*861 FILLER_0_23_193
*862 FILLER_0_23_205
*863 FILLER_0_23_217
*864 FILLER_0_23_223
*865 FILLER_0_23_225
*866 FILLER_0_23_237
*867 FILLER_0_23_252
*868 FILLER_0_23_256
*869 FILLER_0_23_264
*870 FILLER_0_23_27
*871 FILLER_0_23_276
*872 FILLER_0_23_281
*873 FILLER_0_23_3
*874 FILLER_0_23_323
*875 FILLER_0_23_334
*876 FILLER_0_23_337
*877 FILLER_0_23_341
*878 FILLER_0_23_350
*879 FILLER_0_23_39
*880 FILLER_0_23_51
*881 FILLER_0_23_55
*882 FILLER_0_23_57
*883 FILLER_0_23_69
*884 FILLER_0_23_81
*885 FILLER_0_23_93
*886 FILLER_0_24_109
*887 FILLER_0_24_121
*888 FILLER_0_24_133
*889 FILLER_0_24_139
*890 FILLER_0_24_141
*891 FILLER_0_24_15
*892 FILLER_0_24_153
*893 FILLER_0_24_165
*894 FILLER_0_24_177
*895 FILLER_0_24_189
*896 FILLER_0_24_195
*897 FILLER_0_24_197
*898 FILLER_0_24_209
*899 FILLER_0_24_213
*900 FILLER_0_24_251
*901 FILLER_0_24_253
*902 FILLER_0_24_27
*903 FILLER_0_24_29
*904 FILLER_0_24_296
*905 FILLER_0_24_3
*906 FILLER_0_24_320
*907 FILLER_0_24_334
*908 FILLER_0_24_41
*909 FILLER_0_24_53
*910 FILLER_0_24_65
*911 FILLER_0_24_77
*912 FILLER_0_24_83
*913 FILLER_0_24_85
*914 FILLER_0_24_97
*915 FILLER_0_25_105
*916 FILLER_0_25_111
*917 FILLER_0_25_113
*918 FILLER_0_25_125
*919 FILLER_0_25_137
*920 FILLER_0_25_149
*921 FILLER_0_25_15
*922 FILLER_0_25_161
*923 FILLER_0_25_167
*924 FILLER_0_25_169
*925 FILLER_0_25_181
*926 FILLER_0_25_193
*927 FILLER_0_25_205
*928 FILLER_0_25_222
*929 FILLER_0_25_225
*930 FILLER_0_25_241
*931 FILLER_0_25_248
*932 FILLER_0_25_260
*933 FILLER_0_25_264
*934 FILLER_0_25_27
*935 FILLER_0_25_272
*936 FILLER_0_25_281
*937 FILLER_0_25_299
*938 FILLER_0_25_3
*939 FILLER_0_25_319
*940 FILLER_0_25_337
*941 FILLER_0_25_349
*942 FILLER_0_25_39
*943 FILLER_0_25_51
*944 FILLER_0_25_55
*945 FILLER_0_25_57
*946 FILLER_0_25_69
*947 FILLER_0_25_81
*948 FILLER_0_25_93
*949 FILLER_0_26_109
*950 FILLER_0_26_121
*951 FILLER_0_26_133
*952 FILLER_0_26_139
*953 FILLER_0_26_141
*954 FILLER_0_26_15
*955 FILLER_0_26_153
*956 FILLER_0_26_165
*957 FILLER_0_26_177
*958 FILLER_0_26_189
*959 FILLER_0_26_195
*960 FILLER_0_26_197
*961 FILLER_0_26_209
*962 FILLER_0_26_229
*963 FILLER_0_26_237
*964 FILLER_0_26_245
*965 FILLER_0_26_27
*966 FILLER_0_26_274
*967 FILLER_0_26_29
*968 FILLER_0_26_294
*969 FILLER_0_26_3
*970 FILLER_0_26_303
*971 FILLER_0_26_307
*972 FILLER_0_26_309
*973 FILLER_0_26_317
*974 FILLER_0_26_322
*975 FILLER_0_26_334
*976 FILLER_0_26_346
*977 FILLER_0_26_350
*978 FILLER_0_26_41
*979 FILLER_0_26_53
*980 FILLER_0_26_65
*981 FILLER_0_26_77
*982 FILLER_0_26_83
*983 FILLER_0_26_85
*984 FILLER_0_26_97
*985 FILLER_0_27_105
*986 FILLER_0_27_111
*987 FILLER_0_27_113
*988 FILLER_0_27_125
*989 FILLER_0_27_137
*990 FILLER_0_27_149
*991 FILLER_0_27_15
*992 FILLER_0_27_161
*993 FILLER_0_27_167
*994 FILLER_0_27_169
*995 FILLER_0_27_181
*996 FILLER_0_27_193
*997 FILLER_0_27_201
*998 FILLER_0_27_220
*999 FILLER_0_27_233
*1000 FILLER_0_27_248
*1001 FILLER_0_27_260
*1002 FILLER_0_27_266
*1003 FILLER_0_27_27
*1004 FILLER_0_27_271
*1005 FILLER_0_27_279
*1006 FILLER_0_27_281
*1007 FILLER_0_27_289
*1008 FILLER_0_27_3
*1009 FILLER_0_27_301
*1010 FILLER_0_27_308
*1011 FILLER_0_27_340
*1012 FILLER_0_27_348
*1013 FILLER_0_27_39
*1014 FILLER_0_27_51
*1015 FILLER_0_27_55
*1016 FILLER_0_27_57
*1017 FILLER_0_27_69
*1018 FILLER_0_27_81
*1019 FILLER_0_27_93
*1020 FILLER_0_28_109
*1021 FILLER_0_28_121
*1022 FILLER_0_28_133
*1023 FILLER_0_28_139
*1024 FILLER_0_28_141
*1025 FILLER_0_28_15
*1026 FILLER_0_28_153
*1027 FILLER_0_28_165
*1028 FILLER_0_28_177
*1029 FILLER_0_28_189
*1030 FILLER_0_28_195
*1031 FILLER_0_28_197
*1032 FILLER_0_28_201
*1033 FILLER_0_28_205
*1034 FILLER_0_28_213
*1035 FILLER_0_28_220
*1036 FILLER_0_28_232
*1037 FILLER_0_28_257
*1038 FILLER_0_28_261
*1039 FILLER_0_28_27
*1040 FILLER_0_28_29
*1041 FILLER_0_28_290
*1042 FILLER_0_28_3
*1043 FILLER_0_28_302
*1044 FILLER_0_28_306
*1045 FILLER_0_28_309
*1046 FILLER_0_28_313
*1047 FILLER_0_28_317
*1048 FILLER_0_28_325
*1049 FILLER_0_28_333
*1050 FILLER_0_28_41
*1051 FILLER_0_28_53
*1052 FILLER_0_28_65
*1053 FILLER_0_28_77
*1054 FILLER_0_28_83
*1055 FILLER_0_28_85
*1056 FILLER_0_28_97
*1057 FILLER_0_29_105
*1058 FILLER_0_29_111
*1059 FILLER_0_29_113
*1060 FILLER_0_29_125
*1061 FILLER_0_29_137
*1062 FILLER_0_29_149
*1063 FILLER_0_29_15
*1064 FILLER_0_29_161
*1065 FILLER_0_29_167
*1066 FILLER_0_29_169
*1067 FILLER_0_29_181
*1068 FILLER_0_29_201
*1069 FILLER_0_29_214
*1070 FILLER_0_29_242
*1071 FILLER_0_29_248
*1072 FILLER_0_29_254
*1073 FILLER_0_29_262
*1074 FILLER_0_29_267
*1075 FILLER_0_29_27
*1076 FILLER_0_29_279
*1077 FILLER_0_29_281
*1078 FILLER_0_29_3
*1079 FILLER_0_29_330
*1080 FILLER_0_29_337
*1081 FILLER_0_29_349
*1082 FILLER_0_29_39
*1083 FILLER_0_29_51
*1084 FILLER_0_29_55
*1085 FILLER_0_29_57
*1086 FILLER_0_29_69
*1087 FILLER_0_29_81
*1088 FILLER_0_29_93
*1089 FILLER_0_2_109
*1090 FILLER_0_2_121
*1091 FILLER_0_2_133
*1092 FILLER_0_2_139
*1093 FILLER_0_2_141
*1094 FILLER_0_2_15
*1095 FILLER_0_2_153
*1096 FILLER_0_2_165
*1097 FILLER_0_2_177
*1098 FILLER_0_2_189
*1099 FILLER_0_2_195
*1100 FILLER_0_2_197
*1101 FILLER_0_2_209
*1102 FILLER_0_2_221
*1103 FILLER_0_2_233
*1104 FILLER_0_2_245
*1105 FILLER_0_2_251
*1106 FILLER_0_2_253
*1107 FILLER_0_2_265
*1108 FILLER_0_2_27
*1109 FILLER_0_2_277
*1110 FILLER_0_2_289
*1111 FILLER_0_2_29
*1112 FILLER_0_2_3
*1113 FILLER_0_2_301
*1114 FILLER_0_2_307
*1115 FILLER_0_2_309
*1116 FILLER_0_2_321
*1117 FILLER_0_2_333
*1118 FILLER_0_2_345
*1119 FILLER_0_2_41
*1120 FILLER_0_2_53
*1121 FILLER_0_2_65
*1122 FILLER_0_2_77
*1123 FILLER_0_2_83
*1124 FILLER_0_2_85
*1125 FILLER_0_2_97
*1126 FILLER_0_30_109
*1127 FILLER_0_30_121
*1128 FILLER_0_30_133
*1129 FILLER_0_30_139
*1130 FILLER_0_30_141
*1131 FILLER_0_30_15
*1132 FILLER_0_30_153
*1133 FILLER_0_30_165
*1134 FILLER_0_30_173
*1135 FILLER_0_30_177
*1136 FILLER_0_30_189
*1137 FILLER_0_30_195
*1138 FILLER_0_30_197
*1139 FILLER_0_30_209
*1140 FILLER_0_30_221
*1141 FILLER_0_30_231
*1142 FILLER_0_30_243
*1143 FILLER_0_30_251
*1144 FILLER_0_30_253
*1145 FILLER_0_30_27
*1146 FILLER_0_30_282
*1147 FILLER_0_30_287
*1148 FILLER_0_30_29
*1149 FILLER_0_30_295
*1150 FILLER_0_30_3
*1151 FILLER_0_30_307
*1152 FILLER_0_30_309
*1153 FILLER_0_30_317
*1154 FILLER_0_30_325
*1155 FILLER_0_30_342
*1156 FILLER_0_30_350
*1157 FILLER_0_30_41
*1158 FILLER_0_30_53
*1159 FILLER_0_30_65
*1160 FILLER_0_30_77
*1161 FILLER_0_30_83
*1162 FILLER_0_30_85
*1163 FILLER_0_30_97
*1164 FILLER_0_31_105
*1165 FILLER_0_31_111
*1166 FILLER_0_31_113
*1167 FILLER_0_31_125
*1168 FILLER_0_31_137
*1169 FILLER_0_31_149
*1170 FILLER_0_31_15
*1171 FILLER_0_31_161
*1172 FILLER_0_31_167
*1173 FILLER_0_31_193
*1174 FILLER_0_31_219
*1175 FILLER_0_31_225
*1176 FILLER_0_31_242
*1177 FILLER_0_31_261
*1178 FILLER_0_31_266
*1179 FILLER_0_31_27
*1180 FILLER_0_31_278
*1181 FILLER_0_31_281
*1182 FILLER_0_31_289
*1183 FILLER_0_31_3
*1184 FILLER_0_31_310
*1185 FILLER_0_31_320
*1186 FILLER_0_31_334
*1187 FILLER_0_31_337
*1188 FILLER_0_31_349
*1189 FILLER_0_31_39
*1190 FILLER_0_31_51
*1191 FILLER_0_31_55
*1192 FILLER_0_31_57
*1193 FILLER_0_31_69
*1194 FILLER_0_31_81
*1195 FILLER_0_31_93
*1196 FILLER_0_32_109
*1197 FILLER_0_32_121
*1198 FILLER_0_32_133
*1199 FILLER_0_32_15
*1200 FILLER_0_32_157
*1201 FILLER_0_32_169
*1202 FILLER_0_32_181
*1203 FILLER_0_32_187
*1204 FILLER_0_32_195
*1205 FILLER_0_32_197
*1206 FILLER_0_32_209
*1207 FILLER_0_32_224
*1208 FILLER_0_32_232
*1209 FILLER_0_32_249
*1210 FILLER_0_32_253
*1211 FILLER_0_32_265
*1212 FILLER_0_32_27
*1213 FILLER_0_32_277
*1214 FILLER_0_32_286
*1215 FILLER_0_32_29
*1216 FILLER_0_32_298
*1217 FILLER_0_32_3
*1218 FILLER_0_32_306
*1219 FILLER_0_32_309
*1220 FILLER_0_32_321
*1221 FILLER_0_32_328
*1222 FILLER_0_32_41
*1223 FILLER_0_32_53
*1224 FILLER_0_32_65
*1225 FILLER_0_32_77
*1226 FILLER_0_32_83
*1227 FILLER_0_32_85
*1228 FILLER_0_32_97
*1229 FILLER_0_33_105
*1230 FILLER_0_33_111
*1231 FILLER_0_33_113
*1232 FILLER_0_33_125
*1233 FILLER_0_33_137
*1234 FILLER_0_33_149
*1235 FILLER_0_33_15
*1236 FILLER_0_33_167
*1237 FILLER_0_33_176
*1238 FILLER_0_33_193
*1239 FILLER_0_33_216
*1240 FILLER_0_33_235
*1241 FILLER_0_33_247
*1242 FILLER_0_33_27
*1243 FILLER_0_33_277
*1244 FILLER_0_33_281
*1245 FILLER_0_33_289
*1246 FILLER_0_33_3
*1247 FILLER_0_33_309
*1248 FILLER_0_33_331
*1249 FILLER_0_33_335
*1250 FILLER_0_33_337
*1251 FILLER_0_33_349
*1252 FILLER_0_33_39
*1253 FILLER_0_33_51
*1254 FILLER_0_33_55
*1255 FILLER_0_33_57
*1256 FILLER_0_33_69
*1257 FILLER_0_33_81
*1258 FILLER_0_33_93
*1259 FILLER_0_34_109
*1260 FILLER_0_34_121
*1261 FILLER_0_34_133
*1262 FILLER_0_34_139
*1263 FILLER_0_34_141
*1264 FILLER_0_34_15
*1265 FILLER_0_34_153
*1266 FILLER_0_34_165
*1267 FILLER_0_34_169
*1268 FILLER_0_34_189
*1269 FILLER_0_34_195
*1270 FILLER_0_34_197
*1271 FILLER_0_34_208
*1272 FILLER_0_34_220
*1273 FILLER_0_34_225
*1274 FILLER_0_34_235
*1275 FILLER_0_34_243
*1276 FILLER_0_34_251
*1277 FILLER_0_34_261
*1278 FILLER_0_34_27
*1279 FILLER_0_34_273
*1280 FILLER_0_34_281
*1281 FILLER_0_34_29
*1282 FILLER_0_34_291
*1283 FILLER_0_34_3
*1284 FILLER_0_34_303
*1285 FILLER_0_34_307
*1286 FILLER_0_34_317
*1287 FILLER_0_34_329
*1288 FILLER_0_34_341
*1289 FILLER_0_34_349
*1290 FILLER_0_34_41
*1291 FILLER_0_34_53
*1292 FILLER_0_34_65
*1293 FILLER_0_34_77
*1294 FILLER_0_34_83
*1295 FILLER_0_34_85
*1296 FILLER_0_34_97
*1297 FILLER_0_35_105
*1298 FILLER_0_35_111
*1299 FILLER_0_35_113
*1300 FILLER_0_35_122
*1301 FILLER_0_35_134
*1302 FILLER_0_35_15
*1303 FILLER_0_35_153
*1304 FILLER_0_35_166
*1305 FILLER_0_35_169
*1306 FILLER_0_35_185
*1307 FILLER_0_35_197
*1308 FILLER_0_35_213
*1309 FILLER_0_35_221
*1310 FILLER_0_35_225
*1311 FILLER_0_35_237
*1312 FILLER_0_35_248
*1313 FILLER_0_35_254
*1314 FILLER_0_35_27
*1315 FILLER_0_35_275
*1316 FILLER_0_35_279
*1317 FILLER_0_35_297
*1318 FILLER_0_35_3
*1319 FILLER_0_35_311
*1320 FILLER_0_35_330
*1321 FILLER_0_35_337
*1322 FILLER_0_35_349
*1323 FILLER_0_35_39
*1324 FILLER_0_35_51
*1325 FILLER_0_35_55
*1326 FILLER_0_35_57
*1327 FILLER_0_35_69
*1328 FILLER_0_35_81
*1329 FILLER_0_35_93
*1330 FILLER_0_36_109
*1331 FILLER_0_36_121
*1332 FILLER_0_36_133
*1333 FILLER_0_36_139
*1334 FILLER_0_36_141
*1335 FILLER_0_36_149
*1336 FILLER_0_36_15
*1337 FILLER_0_36_173
*1338 FILLER_0_36_197
*1339 FILLER_0_36_201
*1340 FILLER_0_36_230
*1341 FILLER_0_36_243
*1342 FILLER_0_36_251
*1343 FILLER_0_36_253
*1344 FILLER_0_36_267
*1345 FILLER_0_36_27
*1346 FILLER_0_36_287
*1347 FILLER_0_36_29
*1348 FILLER_0_36_299
*1349 FILLER_0_36_3
*1350 FILLER_0_36_314
*1351 FILLER_0_36_332
*1352 FILLER_0_36_344
*1353 FILLER_0_36_350
*1354 FILLER_0_36_41
*1355 FILLER_0_36_53
*1356 FILLER_0_36_65
*1357 FILLER_0_36_77
*1358 FILLER_0_36_83
*1359 FILLER_0_36_85
*1360 FILLER_0_36_97
*1361 FILLER_0_37_105
*1362 FILLER_0_37_111
*1363 FILLER_0_37_113
*1364 FILLER_0_37_125
*1365 FILLER_0_37_137
*1366 FILLER_0_37_149
*1367 FILLER_0_37_15
*1368 FILLER_0_37_172
*1369 FILLER_0_37_186
*1370 FILLER_0_37_195
*1371 FILLER_0_37_199
*1372 FILLER_0_37_207
*1373 FILLER_0_37_219
*1374 FILLER_0_37_223
*1375 FILLER_0_37_225
*1376 FILLER_0_37_236
*1377 FILLER_0_37_242
*1378 FILLER_0_37_27
*1379 FILLER_0_37_276
*1380 FILLER_0_37_281
*1381 FILLER_0_37_3
*1382 FILLER_0_37_310
*1383 FILLER_0_37_316
*1384 FILLER_0_37_320
*1385 FILLER_0_37_332
*1386 FILLER_0_37_337
*1387 FILLER_0_37_349
*1388 FILLER_0_37_39
*1389 FILLER_0_37_51
*1390 FILLER_0_37_55
*1391 FILLER_0_37_57
*1392 FILLER_0_37_69
*1393 FILLER_0_37_81
*1394 FILLER_0_37_93
*1395 FILLER_0_38_104
*1396 FILLER_0_38_110
*1397 FILLER_0_38_113
*1398 FILLER_0_38_122
*1399 FILLER_0_38_128
*1400 FILLER_0_38_134
*1401 FILLER_0_38_141
*1402 FILLER_0_38_146
*1403 FILLER_0_38_15
*1404 FILLER_0_38_152
*1405 FILLER_0_38_195
*1406 FILLER_0_38_223
*1407 FILLER_0_38_245
*1408 FILLER_0_38_251
*1409 FILLER_0_38_27
*1410 FILLER_0_38_274
*1411 FILLER_0_38_278
*1412 FILLER_0_38_29
*1413 FILLER_0_38_292
*1414 FILLER_0_38_3
*1415 FILLER_0_38_309
*1416 FILLER_0_38_327
*1417 FILLER_0_38_335
*1418 FILLER_0_38_337
*1419 FILLER_0_38_349
*1420 FILLER_0_38_41
*1421 FILLER_0_38_53
*1422 FILLER_0_38_57
*1423 FILLER_0_38_68
*1424 FILLER_0_38_74
*1425 FILLER_0_38_80
*1426 FILLER_0_38_88
*1427 FILLER_0_38_92
*1428 FILLER_0_38_98
*1429 FILLER_0_3_105
*1430 FILLER_0_3_111
*1431 FILLER_0_3_113
*1432 FILLER_0_3_125
*1433 FILLER_0_3_137
*1434 FILLER_0_3_149
*1435 FILLER_0_3_15
*1436 FILLER_0_3_161
*1437 FILLER_0_3_167
*1438 FILLER_0_3_169
*1439 FILLER_0_3_181
*1440 FILLER_0_3_193
*1441 FILLER_0_3_205
*1442 FILLER_0_3_217
*1443 FILLER_0_3_223
*1444 FILLER_0_3_225
*1445 FILLER_0_3_237
*1446 FILLER_0_3_249
*1447 FILLER_0_3_261
*1448 FILLER_0_3_27
*1449 FILLER_0_3_273
*1450 FILLER_0_3_279
*1451 FILLER_0_3_281
*1452 FILLER_0_3_293
*1453 FILLER_0_3_3
*1454 FILLER_0_3_305
*1455 FILLER_0_3_317
*1456 FILLER_0_3_329
*1457 FILLER_0_3_335
*1458 FILLER_0_3_337
*1459 FILLER_0_3_349
*1460 FILLER_0_3_39
*1461 FILLER_0_3_51
*1462 FILLER_0_3_55
*1463 FILLER_0_3_57
*1464 FILLER_0_3_69
*1465 FILLER_0_3_81
*1466 FILLER_0_3_93
*1467 FILLER_0_4_109
*1468 FILLER_0_4_121
*1469 FILLER_0_4_133
*1470 FILLER_0_4_139
*1471 FILLER_0_4_141
*1472 FILLER_0_4_15
*1473 FILLER_0_4_153
*1474 FILLER_0_4_165
*1475 FILLER_0_4_177
*1476 FILLER_0_4_189
*1477 FILLER_0_4_195
*1478 FILLER_0_4_197
*1479 FILLER_0_4_209
*1480 FILLER_0_4_221
*1481 FILLER_0_4_233
*1482 FILLER_0_4_245
*1483 FILLER_0_4_251
*1484 FILLER_0_4_253
*1485 FILLER_0_4_265
*1486 FILLER_0_4_27
*1487 FILLER_0_4_277
*1488 FILLER_0_4_289
*1489 FILLER_0_4_29
*1490 FILLER_0_4_3
*1491 FILLER_0_4_301
*1492 FILLER_0_4_307
*1493 FILLER_0_4_309
*1494 FILLER_0_4_321
*1495 FILLER_0_4_333
*1496 FILLER_0_4_345
*1497 FILLER_0_4_41
*1498 FILLER_0_4_53
*1499 FILLER_0_4_65
*1500 FILLER_0_4_77
*1501 FILLER_0_4_83
*1502 FILLER_0_4_85
*1503 FILLER_0_4_97
*1504 FILLER_0_5_105
*1505 FILLER_0_5_111
*1506 FILLER_0_5_113
*1507 FILLER_0_5_125
*1508 FILLER_0_5_137
*1509 FILLER_0_5_149
*1510 FILLER_0_5_15
*1511 FILLER_0_5_161
*1512 FILLER_0_5_167
*1513 FILLER_0_5_169
*1514 FILLER_0_5_181
*1515 FILLER_0_5_193
*1516 FILLER_0_5_205
*1517 FILLER_0_5_217
*1518 FILLER_0_5_223
*1519 FILLER_0_5_225
*1520 FILLER_0_5_237
*1521 FILLER_0_5_249
*1522 FILLER_0_5_261
*1523 FILLER_0_5_27
*1524 FILLER_0_5_273
*1525 FILLER_0_5_279
*1526 FILLER_0_5_281