*SPEF "ieee 1481-1999"
*DESIGN "tt_um_seanvenadas"
*DATE "11:11:11 Fri 11 11, 1111"
*VENDOR "OpenRCX"
*PROGRAM "Parallel Extraction"
*VERSION "1.0"
*DESIGN_FLOW "NAME_SCOPE LOCAL" "PIN_CAP NONE"
*DIVIDER /
*DELIMITER :
*BUS_DELIMITER []
*T_UNIT 1 NS
*C_UNIT 1 PF
*R_UNIT 1 OHM
*L_UNIT 1 HENRY

*NAME_MAP
*3 clk
*4 ena
*5 rst_n
*6 ui_in[0]
*7 ui_in[1]
*8 ui_in[2]
*9 ui_in[3]
*10 ui_in[4]
*11 ui_in[5]
*12 ui_in[6]
*13 ui_in[7]
*14 uio_in[0]
*15 uio_in[1]
*16 uio_in[2]
*17 uio_in[3]
*18 uio_in[4]
*19 uio_in[5]
*20 uio_in[6]
*21 uio_in[7]
*22 net10
*23 net11
*24 net12
*25 net13
*26 net14
*27 net15
*28 net16
*29 net17
*30 net18
*31 net19
*32 net20
*33 net21
*34 net22
*35 net23
*36 net24
*37 net25
*38 uo_out[0]
*39 uo_out[1]
*40 uo_out[2]
*41 uo_out[3]
*42 uo_out[4]
*43 uo_out[5]
*44 net26
*45 net27
*46 _000_
*47 _001_
*48 _002_
*49 _003_
*50 _004_
*51 _005_
*52 _006_
*53 _007_
*54 _008_
*55 _009_
*56 _010_
*57 _011_
*58 _012_
*59 _013_
*60 _014_
*61 _015_
*62 _016_
*63 _017_
*64 _018_
*65 _019_
*66 _020_
*67 _021_
*68 _022_
*69 _023_
*70 _024_
*71 _025_
*72 _026_
*73 _027_
*74 _028_
*75 _029_
*76 _030_
*77 _031_
*78 _032_
*79 _033_
*80 _034_
*81 _035_
*82 _036_
*83 _037_
*84 _038_
*85 _039_
*86 _040_
*87 _041_
*88 _042_
*89 _043_
*90 _044_
*91 _045_
*92 _046_
*93 _047_
*94 _048_
*95 _049_
*96 _050_
*97 _051_
*98 _052_
*99 _053_
*100 _054_
*101 _055_
*102 _056_
*103 _057_
*104 _058_
*105 _059_
*106 _060_
*107 _061_
*108 _062_
*109 _063_
*110 _064_
*111 _065_
*112 _066_
*113 _067_
*114 _068_
*115 _069_
*116 _070_
*117 _071_
*118 _072_
*119 _073_
*120 _074_
*121 _075_
*122 _076_
*123 _077_
*124 _078_
*125 _079_
*126 _080_
*127 clknet_0_clk
*128 clknet_2_0__leaf_clk
*129 clknet_2_1__leaf_clk
*130 clknet_2_2__leaf_clk
*131 clknet_2_3__leaf_clk
*132 count\[0\]
*133 count\[1\]
*134 count\[2\]
*135 count\[3\]
*136 net1
*137 net2
*138 net28
*139 net29
*140 net3
*141 net30
*142 net31
*143 net32
*144 net33
*145 net34
*146 net35
*147 net36
*148 net37
*149 net38
*150 net39
*151 net4
*152 net40
*153 net41
*154 net42
*155 net43
*156 net44
*157 net45
*158 net46
*159 net47
*160 net48
*161 net49
*162 net5
*163 net50
*164 net51
*165 net52
*166 net53
*167 net6
*168 net7
*169 net8
*170 net9
*171 sum_t\[0\]
*172 sum_t\[1\]
*173 sum_x\[0\]
*174 sum_x\[1\]
*175 sum_y\[0\]
*176 sum_y\[1\]
*177 t_reg\[0\]\[0\]
*178 t_reg\[0\]\[1\]
*179 t_reg\[1\]\[0\]
*180 t_reg\[1\]\[1\]
*181 t_reg\[2\]\[0\]
*182 t_reg\[2\]\[1\]
*183 t_reg\[3\]\[0\]
*184 t_reg\[3\]\[1\]
*185 x_reg\[0\]\[0\]
*186 x_reg\[0\]\[1\]
*187 x_reg\[1\]\[0\]
*188 x_reg\[1\]\[1\]
*189 x_reg\[2\]\[0\]
*190 x_reg\[2\]\[1\]
*191 x_reg\[3\]\[0\]
*192 x_reg\[3\]\[1\]
*193 y_reg\[0\]\[0\]
*194 y_reg\[0\]\[1\]
*195 y_reg\[1\]\[0\]
*196 y_reg\[1\]\[1\]
*197 y_reg\[2\]\[0\]
*198 y_reg\[2\]\[1\]
*199 y_reg\[3\]\[0\]
*200 y_reg\[3\]\[1\]
*201 FILLER_0_0_109
*202 FILLER_0_0_113
*203 FILLER_0_0_125
*204 FILLER_0_0_137
*205 FILLER_0_0_141
*206 FILLER_0_0_15
*207 FILLER_0_0_153
*208 FILLER_0_0_165
*209 FILLER_0_0_169
*210 FILLER_0_0_181
*211 FILLER_0_0_193
*212 FILLER_0_0_197
*213 FILLER_0_0_209
*214 FILLER_0_0_221
*215 FILLER_0_0_225
*216 FILLER_0_0_237
*217 FILLER_0_0_249
*218 FILLER_0_0_253
*219 FILLER_0_0_265
*220 FILLER_0_0_27
*221 FILLER_0_0_277
*222 FILLER_0_0_281
*223 FILLER_0_0_29
*224 FILLER_0_0_293
*225 FILLER_0_0_3
*226 FILLER_0_0_305
*227 FILLER_0_0_309
*228 FILLER_0_0_321
*229 FILLER_0_0_333
*230 FILLER_0_0_337
*231 FILLER_0_0_349
*232 FILLER_0_0_41
*233 FILLER_0_0_53
*234 FILLER_0_0_57
*235 FILLER_0_0_69
*236 FILLER_0_0_81
*237 FILLER_0_0_85
*238 FILLER_0_0_97
*239 FILLER_0_10_109
*240 FILLER_0_10_121
*241 FILLER_0_10_133
*242 FILLER_0_10_139
*243 FILLER_0_10_141
*244 FILLER_0_10_15
*245 FILLER_0_10_153
*246 FILLER_0_10_165
*247 FILLER_0_10_177
*248 FILLER_0_10_189
*249 FILLER_0_10_195
*250 FILLER_0_10_197
*251 FILLER_0_10_209
*252 FILLER_0_10_221
*253 FILLER_0_10_233
*254 FILLER_0_10_245
*255 FILLER_0_10_251
*256 FILLER_0_10_253
*257 FILLER_0_10_265
*258 FILLER_0_10_27
*259 FILLER_0_10_277
*260 FILLER_0_10_289
*261 FILLER_0_10_29
*262 FILLER_0_10_3
*263 FILLER_0_10_301
*264 FILLER_0_10_307
*265 FILLER_0_10_309
*266 FILLER_0_10_321
*267 FILLER_0_10_333
*268 FILLER_0_10_345
*269 FILLER_0_10_41
*270 FILLER_0_10_53
*271 FILLER_0_10_65
*272 FILLER_0_10_77
*273 FILLER_0_10_83
*274 FILLER_0_10_85
*275 FILLER_0_10_97
*276 FILLER_0_11_105
*277 FILLER_0_11_111
*278 FILLER_0_11_113
*279 FILLER_0_11_125
*280 FILLER_0_11_137
*281 FILLER_0_11_149
*282 FILLER_0_11_15
*283 FILLER_0_11_161
*284 FILLER_0_11_167
*285 FILLER_0_11_169
*286 FILLER_0_11_181
*287 FILLER_0_11_193
*288 FILLER_0_11_205
*289 FILLER_0_11_217
*290 FILLER_0_11_223
*291 FILLER_0_11_225
*292 FILLER_0_11_237
*293 FILLER_0_11_249
*294 FILLER_0_11_261
*295 FILLER_0_11_27
*296 FILLER_0_11_273
*297 FILLER_0_11_279
*298 FILLER_0_11_281
*299 FILLER_0_11_293
*300 FILLER_0_11_3
*301 FILLER_0_11_305
*302 FILLER_0_11_317
*303 FILLER_0_11_329
*304 FILLER_0_11_335
*305 FILLER_0_11_337
*306 FILLER_0_11_349
*307 FILLER_0_11_39
*308 FILLER_0_11_51
*309 FILLER_0_11_55
*310 FILLER_0_11_57
*311 FILLER_0_11_69
*312 FILLER_0_11_81
*313 FILLER_0_11_93
*314 FILLER_0_12_109
*315 FILLER_0_12_121
*316 FILLER_0_12_133
*317 FILLER_0_12_139
*318 FILLER_0_12_141
*319 FILLER_0_12_15
*320 FILLER_0_12_153
*321 FILLER_0_12_165
*322 FILLER_0_12_177
*323 FILLER_0_12_189
*324 FILLER_0_12_195
*325 FILLER_0_12_197
*326 FILLER_0_12_209
*327 FILLER_0_12_221
*328 FILLER_0_12_233
*329 FILLER_0_12_245
*330 FILLER_0_12_251
*331 FILLER_0_12_253
*332 FILLER_0_12_265
*333 FILLER_0_12_27
*334 FILLER_0_12_277
*335 FILLER_0_12_289
*336 FILLER_0_12_29
*337 FILLER_0_12_3
*338 FILLER_0_12_301
*339 FILLER_0_12_307
*340 FILLER_0_12_309
*341 FILLER_0_12_321
*342 FILLER_0_12_333
*343 FILLER_0_12_345
*344 FILLER_0_12_41
*345 FILLER_0_12_53
*346 FILLER_0_12_65
*347 FILLER_0_12_77
*348 FILLER_0_12_83
*349 FILLER_0_12_85
*350 FILLER_0_12_97
*351 FILLER_0_13_105
*352 FILLER_0_13_111
*353 FILLER_0_13_113
*354 FILLER_0_13_125
*355 FILLER_0_13_137
*356 FILLER_0_13_149
*357 FILLER_0_13_15
*358 FILLER_0_13_161
*359 FILLER_0_13_167
*360 FILLER_0_13_169
*361 FILLER_0_13_181
*362 FILLER_0_13_193
*363 FILLER_0_13_205
*364 FILLER_0_13_217
*365 FILLER_0_13_223
*366 FILLER_0_13_225
*367 FILLER_0_13_237
*368 FILLER_0_13_249
*369 FILLER_0_13_261
*370 FILLER_0_13_27
*371 FILLER_0_13_273
*372 FILLER_0_13_279
*373 FILLER_0_13_281
*374 FILLER_0_13_293
*375 FILLER_0_13_3
*376 FILLER_0_13_305
*377 FILLER_0_13_317
*378 FILLER_0_13_329
*379 FILLER_0_13_335
*380 FILLER_0_13_337
*381 FILLER_0_13_349
*382 FILLER_0_13_39
*383 FILLER_0_13_51
*384 FILLER_0_13_55
*385 FILLER_0_13_57
*386 FILLER_0_13_69
*387 FILLER_0_13_81
*388 FILLER_0_13_93
*389 FILLER_0_14_109
*390 FILLER_0_14_121
*391 FILLER_0_14_133
*392 FILLER_0_14_139
*393 FILLER_0_14_141
*394 FILLER_0_14_15
*395 FILLER_0_14_153
*396 FILLER_0_14_165
*397 FILLER_0_14_177
*398 FILLER_0_14_189
*399 FILLER_0_14_195
*400 FILLER_0_14_197
*401 FILLER_0_14_209
*402 FILLER_0_14_221
*403 FILLER_0_14_233
*404 FILLER_0_14_245
*405 FILLER_0_14_251
*406 FILLER_0_14_253
*407 FILLER_0_14_265
*408 FILLER_0_14_27
*409 FILLER_0_14_277
*410 FILLER_0_14_289
*411 FILLER_0_14_29
*412 FILLER_0_14_3
*413 FILLER_0_14_301
*414 FILLER_0_14_307
*415 FILLER_0_14_309
*416 FILLER_0_14_321
*417 FILLER_0_14_333
*418 FILLER_0_14_345
*419 FILLER_0_14_41
*420 FILLER_0_14_53
*421 FILLER_0_14_65
*422 FILLER_0_14_77
*423 FILLER_0_14_83
*424 FILLER_0_14_85
*425 FILLER_0_14_97
*426 FILLER_0_15_105
*427 FILLER_0_15_111
*428 FILLER_0_15_113
*429 FILLER_0_15_125
*430 FILLER_0_15_137
*431 FILLER_0_15_149
*432 FILLER_0_15_15
*433 FILLER_0_15_161
*434 FILLER_0_15_167
*435 FILLER_0_15_169
*436 FILLER_0_15_181
*437 FILLER_0_15_193
*438 FILLER_0_15_205
*439 FILLER_0_15_217
*440 FILLER_0_15_223
*441 FILLER_0_15_225
*442 FILLER_0_15_237
*443 FILLER_0_15_249
*444 FILLER_0_15_261
*445 FILLER_0_15_27
*446 FILLER_0_15_273
*447 FILLER_0_15_279
*448 FILLER_0_15_281
*449 FILLER_0_15_293
*450 FILLER_0_15_3
*451 FILLER_0_15_305
*452 FILLER_0_15_317
*453 FILLER_0_15_329
*454 FILLER_0_15_335
*455 FILLER_0_15_337
*456 FILLER_0_15_349
*457 FILLER_0_15_39
*458 FILLER_0_15_51
*459 FILLER_0_15_55
*460 FILLER_0_15_57
*461 FILLER_0_15_69
*462 FILLER_0_15_81
*463 FILLER_0_15_93
*464 FILLER_0_16_109
*465 FILLER_0_16_121
*466 FILLER_0_16_133
*467 FILLER_0_16_139
*468 FILLER_0_16_141
*469 FILLER_0_16_15
*470 FILLER_0_16_153
*471 FILLER_0_16_165
*472 FILLER_0_16_177
*473 FILLER_0_16_189
*474 FILLER_0_16_195
*475 FILLER_0_16_197
*476 FILLER_0_16_209
*477 FILLER_0_16_221
*478 FILLER_0_16_233
*479 FILLER_0_16_245
*480 FILLER_0_16_251
*481 FILLER_0_16_253
*482 FILLER_0_16_265
*483 FILLER_0_16_27
*484 FILLER_0_16_277
*485 FILLER_0_16_289
*486 FILLER_0_16_29
*487 FILLER_0_16_3
*488 FILLER_0_16_301
*489 FILLER_0_16_307
*490 FILLER_0_16_309
*491 FILLER_0_16_321
*492 FILLER_0_16_333
*493 FILLER_0_16_345
*494 FILLER_0_16_41
*495 FILLER_0_16_53
*496 FILLER_0_16_65
*497 FILLER_0_16_77
*498 FILLER_0_16_83
*499 FILLER_0_16_85
*500 FILLER_0_16_97
*501 FILLER_0_17_105
*502 FILLER_0_17_111
*503 FILLER_0_17_113
*504 FILLER_0_17_125
*505 FILLER_0_17_137
*506 FILLER_0_17_149
*507 FILLER_0_17_15
*508 FILLER_0_17_161
*509 FILLER_0_17_167
*510 FILLER_0_17_169
*511 FILLER_0_17_181
*512 FILLER_0_17_193
*513 FILLER_0_17_205
*514 FILLER_0_17_217
*515 FILLER_0_17_223
*516 FILLER_0_17_225
*517 FILLER_0_17_237
*518 FILLER_0_17_249
*519 FILLER_0_17_261
*520 FILLER_0_17_27
*521 FILLER_0_17_273
*522 FILLER_0_17_279
*523 FILLER_0_17_281
*524 FILLER_0_17_293
*525 FILLER_0_17_3
*526 FILLER_0_17_305
*527 FILLER_0_17_317
*528 FILLER_0_17_329
*529 FILLER_0_17_335
*530 FILLER_0_17_337
*531 FILLER_0_17_349
*532 FILLER_0_17_39
*533 FILLER_0_17_51
*534 FILLER_0_17_55
*535 FILLER_0_17_57
*536 FILLER_0_17_69
*537 FILLER_0_17_81
*538 FILLER_0_17_93
*539 FILLER_0_18_109
*540 FILLER_0_18_121
*541 FILLER_0_18_133
*542 FILLER_0_18_139
*543 FILLER_0_18_141
*544 FILLER_0_18_15
*545 FILLER_0_18_153
*546 FILLER_0_18_165
*547 FILLER_0_18_177
*548 FILLER_0_18_189
*549 FILLER_0_18_195
*550 FILLER_0_18_197
*551 FILLER_0_18_209
*552 FILLER_0_18_221
*553 FILLER_0_18_233
*554 FILLER_0_18_245
*555 FILLER_0_18_251
*556 FILLER_0_18_253
*557 FILLER_0_18_265
*558 FILLER_0_18_27
*559 FILLER_0_18_277
*560 FILLER_0_18_289
*561 FILLER_0_18_29
*562 FILLER_0_18_3
*563 FILLER_0_18_301
*564 FILLER_0_18_307
*565 FILLER_0_18_309
*566 FILLER_0_18_321
*567 FILLER_0_18_333
*568 FILLER_0_18_345
*569 FILLER_0_18_41
*570 FILLER_0_18_53
*571 FILLER_0_18_65
*572 FILLER_0_18_77
*573 FILLER_0_18_83
*574 FILLER_0_18_85
*575 FILLER_0_18_97
*576 FILLER_0_19_105
*577 FILLER_0_19_111
*578 FILLER_0_19_113
*579 FILLER_0_19_125
*580 FILLER_0_19_137
*581 FILLER_0_19_149
*582 FILLER_0_19_15
*583 FILLER_0_19_161
*584 FILLER_0_19_167
*585 FILLER_0_19_169
*586 FILLER_0_19_181
*587 FILLER_0_19_193
*588 FILLER_0_19_205
*589 FILLER_0_19_217
*590 FILLER_0_19_223
*591 FILLER_0_19_225
*592 FILLER_0_19_237
*593 FILLER_0_19_249
*594 FILLER_0_19_261
*595 FILLER_0_19_27
*596 FILLER_0_19_273
*597 FILLER_0_19_279
*598 FILLER_0_19_281
*599 FILLER_0_19_293
*600 FILLER_0_19_3
*601 FILLER_0_19_305
*602 FILLER_0_19_317
*603 FILLER_0_19_329
*604 FILLER_0_19_335
*605 FILLER_0_19_337
*606 FILLER_0_19_349
*607 FILLER_0_19_39
*608 FILLER_0_19_51
*609 FILLER_0_19_55
*610 FILLER_0_19_57
*611 FILLER_0_19_69
*612 FILLER_0_19_81
*613 FILLER_0_19_93
*614 FILLER_0_1_105
*615 FILLER_0_1_111
*616 FILLER_0_1_113
*617 FILLER_0_1_125
*618 FILLER_0_1_137
*619 FILLER_0_1_149
*620 FILLER_0_1_15
*621 FILLER_0_1_161
*622 FILLER_0_1_167
*623 FILLER_0_1_169
*624 FILLER_0_1_181
*625 FILLER_0_1_193
*626 FILLER_0_1_205
*627 FILLER_0_1_217
*628 FILLER_0_1_223
*629 FILLER_0_1_225
*630 FILLER_0_1_237
*631 FILLER_0_1_249
*632 FILLER_0_1_261
*633 FILLER_0_1_27
*634 FILLER_0_1_273
*635 FILLER_0_1_279
*636 FILLER_0_1_281
*637 FILLER_0_1_293
*638 FILLER_0_1_3
*639 FILLER_0_1_305
*640 FILLER_0_1_317
*641 FILLER_0_1_329
*642 FILLER_0_1_335
*643 FILLER_0_1_337
*644 FILLER_0_1_349
*645 FILLER_0_1_39
*646 FILLER_0_1_51
*647 FILLER_0_1_55
*648 FILLER_0_1_57
*649 FILLER_0_1_69
*650 FILLER_0_1_81
*651 FILLER_0_1_93
*652 FILLER_0_20_109
*653 FILLER_0_20_121
*654 FILLER_0_20_133
*655 FILLER_0_20_139
*656 FILLER_0_20_141
*657 FILLER_0_20_15
*658 FILLER_0_20_153
*659 FILLER_0_20_165
*660 FILLER_0_20_177
*661 FILLER_0_20_189
*662 FILLER_0_20_195
*663 FILLER_0_20_197
*664 FILLER_0_20_209
*665 FILLER_0_20_221
*666 FILLER_0_20_233
*667 FILLER_0_20_245
*668 FILLER_0_20_251
*669 FILLER_0_20_253
*670 FILLER_0_20_265
*671 FILLER_0_20_27
*672 FILLER_0_20_277
*673 FILLER_0_20_289
*674 FILLER_0_20_29
*675 FILLER_0_20_3
*676 FILLER_0_20_301
*677 FILLER_0_20_307
*678 FILLER_0_20_309
*679 FILLER_0_20_321
*680 FILLER_0_20_333
*681 FILLER_0_20_345
*682 FILLER_0_20_41
*683 FILLER_0_20_53
*684 FILLER_0_20_65
*685 FILLER_0_20_77
*686 FILLER_0_20_83
*687 FILLER_0_20_85
*688 FILLER_0_20_97
*689 FILLER_0_21_105
*690 FILLER_0_21_111
*691 FILLER_0_21_113
*692 FILLER_0_21_125
*693 FILLER_0_21_137
*694 FILLER_0_21_149
*695 FILLER_0_21_15
*696 FILLER_0_21_161
*697 FILLER_0_21_167
*698 FILLER_0_21_169
*699 FILLER_0_21_181
*700 FILLER_0_21_193
*701 FILLER_0_21_205
*702 FILLER_0_21_217
*703 FILLER_0_21_223
*704 FILLER_0_21_225
*705 FILLER_0_21_237
*706 FILLER_0_21_249
*707 FILLER_0_21_261
*708 FILLER_0_21_27
*709 FILLER_0_21_273
*710 FILLER_0_21_279
*711 FILLER_0_21_281
*712 FILLER_0_21_293
*713 FILLER_0_21_3
*714 FILLER_0_21_305
*715 FILLER_0_21_317
*716 FILLER_0_21_329
*717 FILLER_0_21_335
*718 FILLER_0_21_337
*719 FILLER_0_21_349
*720 FILLER_0_21_39
*721 FILLER_0_21_51
*722 FILLER_0_21_55
*723 FILLER_0_21_57
*724 FILLER_0_21_69
*725 FILLER_0_21_81
*726 FILLER_0_21_93
*727 FILLER_0_22_109
*728 FILLER_0_22_121
*729 FILLER_0_22_133
*730 FILLER_0_22_139
*731 FILLER_0_22_141
*732 FILLER_0_22_15
*733 FILLER_0_22_153
*734 FILLER_0_22_165
*735 FILLER_0_22_177
*736 FILLER_0_22_189
*737 FILLER_0_22_195
*738 FILLER_0_22_197
*739 FILLER_0_22_209
*740 FILLER_0_22_221
*741 FILLER_0_22_233
*742 FILLER_0_22_245
*743 FILLER_0_22_251
*744 FILLER_0_22_253
*745 FILLER_0_22_265
*746 FILLER_0_22_27
*747 FILLER_0_22_277
*748 FILLER_0_22_289
*749 FILLER_0_22_29
*750 FILLER_0_22_3
*751 FILLER_0_22_301
*752 FILLER_0_22_307
*753 FILLER_0_22_309
*754 FILLER_0_22_321
*755 FILLER_0_22_333
*756 FILLER_0_22_345
*757 FILLER_0_22_41
*758 FILLER_0_22_53
*759 FILLER_0_22_65
*760 FILLER_0_22_77
*761 FILLER_0_22_83
*762 FILLER_0_22_85
*763 FILLER_0_22_97
*764 FILLER_0_23_105
*765 FILLER_0_23_111
*766 FILLER_0_23_113
*767 FILLER_0_23_125
*768 FILLER_0_23_137
*769 FILLER_0_23_149
*770 FILLER_0_23_15
*771 FILLER_0_23_161
*772 FILLER_0_23_167
*773 FILLER_0_23_169
*774 FILLER_0_23_181
*775 FILLER_0_23_193
*776 FILLER_0_23_205
*777 FILLER_0_23_217
*778 FILLER_0_23_223
*779 FILLER_0_23_225
*780 FILLER_0_23_237
*781 FILLER_0_23_249
*782 FILLER_0_23_261
*783 FILLER_0_23_27
*784 FILLER_0_23_273
*785 FILLER_0_23_279
*786 FILLER_0_23_281
*787 FILLER_0_23_293
*788 FILLER_0_23_3
*789 FILLER_0_23_305
*790 FILLER_0_23_317
*791 FILLER_0_23_329
*792 FILLER_0_23_335
*793 FILLER_0_23_337
*794 FILLER_0_23_349
*795 FILLER_0_23_39
*796 FILLER_0_23_51
*797 FILLER_0_23_55
*798 FILLER_0_23_57
*799 FILLER_0_23_69
*800 FILLER_0_23_81
*801 FILLER_0_23_93
*802 FILLER_0_24_109
*803 FILLER_0_24_121
*804 FILLER_0_24_133
*805 FILLER_0_24_139
*806 FILLER_0_24_141
*807 FILLER_0_24_15
*808 FILLER_0_24_153
*809 FILLER_0_24_165
*810 FILLER_0_24_177
*811 FILLER_0_24_189
*812 FILLER_0_24_195
*813 FILLER_0_24_197
*814 FILLER_0_24_209
*815 FILLER_0_24_221
*816 FILLER_0_24_233
*817 FILLER_0_24_245
*818 FILLER_0_24_251
*819 FILLER_0_24_253
*820 FILLER_0_24_265
*821 FILLER_0_24_27
*822 FILLER_0_24_277
*823 FILLER_0_24_289
*824 FILLER_0_24_29
*825 FILLER_0_24_3
*826 FILLER_0_24_301
*827 FILLER_0_24_307
*828 FILLER_0_24_309
*829 FILLER_0_24_321
*830 FILLER_0_24_333
*831 FILLER_0_24_345
*832 FILLER_0_24_41
*833 FILLER_0_24_53
*834 FILLER_0_24_65
*835 FILLER_0_24_77
*836 FILLER_0_24_83
*837 FILLER_0_24_85
*838 FILLER_0_24_97
*839 FILLER_0_25_105
*840 FILLER_0_25_111
*841 FILLER_0_25_113
*842 FILLER_0_25_125
*843 FILLER_0_25_137
*844 FILLER_0_25_149
*845 FILLER_0_25_15
*846 FILLER_0_25_161
*847 FILLER_0_25_167
*848 FILLER_0_25_169
*849 FILLER_0_25_181
*850 FILLER_0_25_193
*851 FILLER_0_25_205
*852 FILLER_0_25_217
*853 FILLER_0_25_223
*854 FILLER_0_25_225
*855 FILLER_0_25_237
*856 FILLER_0_25_249
*857 FILLER_0_25_261
*858 FILLER_0_25_27
*859 FILLER_0_25_273
*860 FILLER_0_25_279
*861 FILLER_0_25_281
*862 FILLER_0_25_293
*863 FILLER_0_25_3
*864 FILLER_0_25_305
*865 FILLER_0_25_317
*866 FILLER_0_25_329
*867 FILLER_0_25_335
*868 FILLER_0_25_337
*869 FILLER_0_25_349
*870 FILLER_0_25_39
*871 FILLER_0_25_51
*872 FILLER_0_25_55
*873 FILLER_0_25_57
*874 FILLER_0_25_69
*875 FILLER_0_25_81
*876 FILLER_0_25_93
*877 FILLER_0_26_109
*878 FILLER_0_26_121
*879 FILLER_0_26_133
*880 FILLER_0_26_139
*881 FILLER_0_26_141
*882 FILLER_0_26_15
*883 FILLER_0_26_153
*884 FILLER_0_26_165
*885 FILLER_0_26_177
*886 FILLER_0_26_189
*887 FILLER_0_26_195
*888 FILLER_0_26_197
*889 FILLER_0_26_209
*890 FILLER_0_26_221
*891 FILLER_0_26_233
*892 FILLER_0_26_245
*893 FILLER_0_26_251
*894 FILLER_0_26_253
*895 FILLER_0_26_265
*896 FILLER_0_26_27
*897 FILLER_0_26_277
*898 FILLER_0_26_289
*899 FILLER_0_26_29
*900 FILLER_0_26_3
*901 FILLER_0_26_301
*902 FILLER_0_26_307
*903 FILLER_0_26_309
*904 FILLER_0_26_321
*905 FILLER_0_26_333
*906 FILLER_0_26_345
*907 FILLER_0_26_41
*908 FILLER_0_26_53
*909 FILLER_0_26_65
*910 FILLER_0_26_77
*911 FILLER_0_26_83
*912 FILLER_0_26_85
*913 FILLER_0_26_97
*914 FILLER_0_27_105
*915 FILLER_0_27_111
*916 FILLER_0_27_113
*917 FILLER_0_27_125
*918 FILLER_0_27_137
*919 FILLER_0_27_149
*920 FILLER_0_27_15
*921 FILLER_0_27_161
*922 FILLER_0_27_167
*923 FILLER_0_27_169
*924 FILLER_0_27_181
*925 FILLER_0_27_193
*926 FILLER_0_27_205
*927 FILLER_0_27_217
*928 FILLER_0_27_223
*929 FILLER_0_27_225
*930 FILLER_0_27_237
*931 FILLER_0_27_249
*932 FILLER_0_27_261
*933 FILLER_0_27_27
*934 FILLER_0_27_273
*935 FILLER_0_27_279
*936 FILLER_0_27_281
*937 FILLER_0_27_293
*938 FILLER_0_27_3
*939 FILLER_0_27_305
*940 FILLER_0_27_317
*941 FILLER_0_27_329
*942 FILLER_0_27_335
*943 FILLER_0_27_337
*944 FILLER_0_27_349
*945 FILLER_0_27_39
*946 FILLER_0_27_51
*947 FILLER_0_27_55
*948 FILLER_0_27_57
*949 FILLER_0_27_69
*950 FILLER_0_27_81
*951 FILLER_0_27_93
*952 FILLER_0_28_109
*953 FILLER_0_28_121
*954 FILLER_0_28_133
*955 FILLER_0_28_139
*956 FILLER_0_28_141
*957 FILLER_0_28_15
*958 FILLER_0_28_153
*959 FILLER_0_28_165
*960 FILLER_0_28_177
*961 FILLER_0_28_189
*962 FILLER_0_28_195
*963 FILLER_0_28_197
*964 FILLER_0_28_221
*965 FILLER_0_28_233
*966 FILLER_0_28_245
*967 FILLER_0_28_251
*968 FILLER_0_28_253
*969 FILLER_0_28_265
*970 FILLER_0_28_27
*971 FILLER_0_28_277
*972 FILLER_0_28_29
*973 FILLER_0_28_290
*974 FILLER_0_28_3
*975 FILLER_0_28_302
*976 FILLER_0_28_309
*977 FILLER_0_28_321
*978 FILLER_0_28_327
*979 FILLER_0_28_348
*980 FILLER_0_28_41
*981 FILLER_0_28_53
*982 FILLER_0_28_65
*983 FILLER_0_28_77
*984 FILLER_0_28_83
*985 FILLER_0_28_85
*986 FILLER_0_28_97
*987 FILLER_0_29_105
*988 FILLER_0_29_111
*989 FILLER_0_29_113
*990 FILLER_0_29_125
*991 FILLER_0_29_137
*992 FILLER_0_29_149
*993 FILLER_0_29_15
*994 FILLER_0_29_161
*995 FILLER_0_29_167
*996 FILLER_0_29_169
*997 FILLER_0_29_181
*998 FILLER_0_29_205
*999 FILLER_0_29_217
*1000 FILLER_0_29_223
*1001 FILLER_0_29_225
*1002 FILLER_0_29_238
*1003 FILLER_0_29_245
*1004 FILLER_0_29_253
*1005 FILLER_0_29_259
*1006 FILLER_0_29_27
*1007 FILLER_0_29_289
*1008 FILLER_0_29_3
*1009 FILLER_0_29_337
*1010 FILLER_0_29_349
*1011 FILLER_0_29_39
*1012 FILLER_0_29_51
*1013 FILLER_0_29_55
*1014 FILLER_0_29_57
*1015 FILLER_0_29_69
*1016 FILLER_0_29_81
*1017 FILLER_0_29_93
*1018 FILLER_0_2_109
*1019 FILLER_0_2_121
*1020 FILLER_0_2_133
*1021 FILLER_0_2_139
*1022 FILLER_0_2_141
*1023 FILLER_0_2_15
*1024 FILLER_0_2_153
*1025 FILLER_0_2_165
*1026 FILLER_0_2_177
*1027 FILLER_0_2_189
*1028 FILLER_0_2_195
*1029 FILLER_0_2_197
*1030 FILLER_0_2_209
*1031 FILLER_0_2_221
*1032 FILLER_0_2_233
*1033 FILLER_0_2_245
*1034 FILLER_0_2_251
*1035 FILLER_0_2_253
*1036 FILLER_0_2_265
*1037 FILLER_0_2_27
*1038 FILLER_0_2_277
*1039 FILLER_0_2_289
*1040 FILLER_0_2_29
*1041 FILLER_0_2_3
*1042 FILLER_0_2_301
*1043 FILLER_0_2_307
*1044 FILLER_0_2_309
*1045 FILLER_0_2_321
*1046 FILLER_0_2_333
*1047 FILLER_0_2_345
*1048 FILLER_0_2_41
*1049 FILLER_0_2_53
*1050 FILLER_0_2_65
*1051 FILLER_0_2_77
*1052 FILLER_0_2_83
*1053 FILLER_0_2_85
*1054 FILLER_0_2_97
*1055 FILLER_0_30_109
*1056 FILLER_0_30_121
*1057 FILLER_0_30_133
*1058 FILLER_0_30_139
*1059 FILLER_0_30_141
*1060 FILLER_0_30_15
*1061 FILLER_0_30_153
*1062 FILLER_0_30_219
*1063 FILLER_0_30_227
*1064 FILLER_0_30_250
*1065 FILLER_0_30_27
*1066 FILLER_0_30_276
*1067 FILLER_0_30_29
*1068 FILLER_0_30_299
*1069 FILLER_0_30_3
*1070 FILLER_0_30_307
*1071 FILLER_0_30_348
*1072 FILLER_0_30_41
*1073 FILLER_0_30_53
*1074 FILLER_0_30_65
*1075 FILLER_0_30_77
*1076 FILLER_0_30_83
*1077 FILLER_0_30_85
*1078 FILLER_0_30_97
*1079 FILLER_0_31_105
*1080 FILLER_0_31_111
*1081 FILLER_0_31_113
*1082 FILLER_0_31_125
*1083 FILLER_0_31_137
*1084 FILLER_0_31_149
*1085 FILLER_0_31_15
*1086 FILLER_0_31_161
*1087 FILLER_0_31_169
*1088 FILLER_0_31_219
*1089 FILLER_0_31_252
*1090 FILLER_0_31_261
*1091 FILLER_0_31_27
*1092 FILLER_0_31_3
*1093 FILLER_0_31_308
*1094 FILLER_0_31_348
*1095 FILLER_0_31_39
*1096 FILLER_0_31_51
*1097 FILLER_0_31_55
*1098 FILLER_0_31_57
*1099 FILLER_0_31_69
*1100 FILLER_0_31_81
*1101 FILLER_0_31_93
*1102 FILLER_0_32_109
*1103 FILLER_0_32_121
*1104 FILLER_0_32_133
*1105 FILLER_0_32_139
*1106 FILLER_0_32_141
*1107 FILLER_0_32_15
*1108 FILLER_0_32_153
*1109 FILLER_0_32_165
*1110 FILLER_0_32_171
*1111 FILLER_0_32_175
*1112 FILLER_0_32_183
*1113 FILLER_0_32_211
*1114 FILLER_0_32_223
*1115 FILLER_0_32_229
*1116 FILLER_0_32_250
*1117 FILLER_0_32_261
*1118 FILLER_0_32_27
*1119 FILLER_0_32_29
*1120 FILLER_0_32_292
*1121 FILLER_0_32_3
*1122 FILLER_0_32_304
*1123 FILLER_0_32_309
*1124 FILLER_0_32_332
*1125 FILLER_0_32_344
*1126 FILLER_0_32_350
*1127 FILLER_0_32_41
*1128 FILLER_0_32_53
*1129 FILLER_0_32_65
*1130 FILLER_0_32_77
*1131 FILLER_0_32_83
*1132 FILLER_0_32_85
*1133 FILLER_0_32_97
*1134 FILLER_0_33_105
*1135 FILLER_0_33_111
*1136 FILLER_0_33_113
*1137 FILLER_0_33_125
*1138 FILLER_0_33_137
*1139 FILLER_0_33_149
*1140 FILLER_0_33_15
*1141 FILLER_0_33_169
*1142 FILLER_0_33_181
*1143 FILLER_0_33_193
*1144 FILLER_0_33_201
*1145 FILLER_0_33_248
*1146 FILLER_0_33_27
*1147 FILLER_0_33_272
*1148 FILLER_0_33_281
*1149 FILLER_0_33_293
*1150 FILLER_0_33_3
*1151 FILLER_0_33_328
*1152 FILLER_0_33_332
*1153 FILLER_0_33_345
*1154 FILLER_0_33_39
*1155 FILLER_0_33_51
*1156 FILLER_0_33_55
*1157 FILLER_0_33_57
*1158 FILLER_0_33_69
*1159 FILLER_0_33_81
*1160 FILLER_0_33_93
*1161 FILLER_0_34_109
*1162 FILLER_0_34_121
*1163 FILLER_0_34_133
*1164 FILLER_0_34_139
*1165 FILLER_0_34_141
*1166 FILLER_0_34_149
*1167 FILLER_0_34_15
*1168 FILLER_0_34_184
*1169 FILLER_0_34_197
*1170 FILLER_0_34_221
*1171 FILLER_0_34_225
*1172 FILLER_0_34_234
*1173 FILLER_0_34_238
*1174 FILLER_0_34_245
*1175 FILLER_0_34_249
*1176 FILLER_0_34_253
*1177 FILLER_0_34_265
*1178 FILLER_0_34_27
*1179 FILLER_0_34_274
*1180 FILLER_0_34_286
*1181 FILLER_0_34_29
*1182 FILLER_0_34_3
*1183 FILLER_0_34_312
*1184 FILLER_0_34_320
*1185 FILLER_0_34_346
*1186 FILLER_0_34_350
*1187 FILLER_0_34_41
*1188 FILLER_0_34_53
*1189 FILLER_0_34_65
*1190 FILLER_0_34_77
*1191 FILLER_0_34_83
*1192 FILLER_0_34_85
*1193 FILLER_0_34_97
*1194 FILLER_0_35_105
*1195 FILLER_0_35_111
*1196 FILLER_0_35_113
*1197 FILLER_0_35_125
*1198 FILLER_0_35_137
*1199 FILLER_0_35_149
*1200 FILLER_0_35_15
*1201 FILLER_0_35_155
*1202 FILLER_0_35_163
*1203 FILLER_0_35_169
*1204 FILLER_0_35_190
*1205 FILLER_0_35_198
*1206 FILLER_0_35_205
*1207 FILLER_0_35_223
*1208 FILLER_0_35_225
*1209 FILLER_0_35_233
*1210 FILLER_0_35_255
*1211 FILLER_0_35_259
*1212 FILLER_0_35_27
*1213 FILLER_0_35_3
*1214 FILLER_0_35_304
*1215 FILLER_0_35_308
*1216 FILLER_0_35_312
*1217 FILLER_0_35_39
*1218 FILLER_0_35_51
*1219 FILLER_0_35_55
*1220 FILLER_0_35_57
*1221 FILLER_0_35_69
*1222 FILLER_0_35_81
*1223 FILLER_0_35_93
*1224 FILLER_0_36_109
*1225 FILLER_0_36_121
*1226 FILLER_0_36_133
*1227 FILLER_0_36_139
*1228 FILLER_0_36_141
*1229 FILLER_0_36_15
*1230 FILLER_0_36_153
*1231 FILLER_0_36_185
*1232 FILLER_0_36_220
*1233 FILLER_0_36_228
*1234 FILLER_0_36_249
*1235 FILLER_0_36_27
*1236 FILLER_0_36_270
*1237 FILLER_0_36_29
*1238 FILLER_0_36_298
*1239 FILLER_0_36_3
*1240 FILLER_0_36_307
*1241 FILLER_0_36_309
*1242 FILLER_0_36_326
*1243 FILLER_0_36_348
*1244 FILLER_0_36_41
*1245 FILLER_0_36_53
*1246 FILLER_0_36_65
*1247 FILLER_0_36_77
*1248 FILLER_0_36_83
*1249 FILLER_0_36_85
*1250 FILLER_0_36_97
*1251 FILLER_0_37_105
*1252 FILLER_0_37_111
*1253 FILLER_0_37_113
*1254 FILLER_0_37_125
*1255 FILLER_0_37_137
*1256 FILLER_0_37_149
*1257 FILLER_0_37_15
*1258 FILLER_0_37_157
*1259 FILLER_0_37_165
*1260 FILLER_0_37_169
*1261 FILLER_0_37_198
*1262 FILLER_0_37_27
*1263 FILLER_0_37_277
*1264 FILLER_0_37_288
*1265 FILLER_0_37_3
*1266 FILLER_0_37_334
*1267 FILLER_0_37_337
*1268 FILLER_0_37_349
*1269 FILLER_0_37_39
*1270 FILLER_0_37_51
*1271 FILLER_0_37_55
*1272 FILLER_0_37_57
*1273 FILLER_0_37_69
*1274 FILLER_0_37_81
*1275 FILLER_0_37_93
*1276 FILLER_0_38_104
*1277 FILLER_0_38_110
*1278 FILLER_0_38_116
*1279 FILLER_0_38_122
*1280 FILLER_0_38_128
*1281 FILLER_0_38_134
*1282 FILLER_0_38_141
*1283 FILLER_0_38_146
*1284 FILLER_0_38_15
*1285 FILLER_0_38_152
*1286 FILLER_0_38_158
*1287 FILLER_0_38_164
*1288 FILLER_0_38_182
*1289 FILLER_0_38_190
*1290 FILLER_0_38_203
*1291 FILLER_0_38_210
*1292 FILLER_0_38_219
*1293 FILLER_0_38_223
*1294 FILLER_0_38_225
*1295 FILLER_0_38_237
*1296 FILLER_0_38_246
*1297 FILLER_0_38_253
*1298 FILLER_0_38_260
*1299 FILLER_0_38_266
*1300 FILLER_0_38_27
*1301 FILLER_0_38_272
*1302 FILLER_0_38_278
*1303 FILLER_0_38_284
*1304 FILLER_0_38_29
*1305 FILLER_0_38_290
*1306 FILLER_0_38_296
*1307 FILLER_0_38_3
*1308 FILLER_0_38_302
*1309 FILLER_0_38_313
*1310 FILLER_0_38_345
*1311 FILLER_0_38_41
*1312 FILLER_0_38_53
*1313 FILLER_0_38_57
*1314 FILLER_0_38_68
*1315 FILLER_0_38_74
*1316 FILLER_0_38_80
*1317 FILLER_0_38_88
*1318 FILLER_0_38_92
*1319 FILLER_0_38_98
*1320 FILLER_0_3_105
*1321 FILLER_0_3_111
*1322 FILLER_0_3_113
*1323 FILLER_0_3_125
*1324 FILLER_0_3_137
*1325 FILLER_0_3_149
*1326 FILLER_0_3_15
*1327 FILLER_0_3_161
*1328 FILLER_0_3_167
*1329 FILLER_0_3_169
*1330 FILLER_0_3_181
*1331 FILLER_0_3_193
*1332 FILLER_0_3_205
*1333 FILLER_0_3_217
*1334 FILLER_0_3_223
*1335 FILLER_0_3_225
*1336 FILLER_0_3_237
*1337 FILLER_0_3_249
*1338 FILLER_0_3_261
*1339 FILLER_0_3_27
*1340 FILLER_0_3_273
*1341 FILLER_0_3_279
*1342 FILLER_0_3_281
*1343 FILLER_0_3_293
*1344 FILLER_0_3_3
*1345 FILLER_0_3_305
*1346 FILLER_0_3_317
*1347 FILLER_0_3_329
*1348 FILLER_0_3_335
*1349 FILLER_0_3_337
*1350 FILLER_0_3_349
*1351 FILLER_0_3_39
*1352 FILLER_0_3_51
*1353 FILLER_0_3_55
*1354 FILLER_0_3_57
*1355 FILLER_0_3_69
*1356 FILLER_0_3_81
*1357 FILLER_0_3_93
*1358 FILLER_0_4_109
*1359 FILLER_0_4_121
*1360 FILLER_0_4_133
*1361 FILLER_0_4_139
*1362 FILLER_0_4_141
*1363 FILLER_0_4_15
*1364 FILLER_0_4_153
*1365 FILLER_0_4_165
*1366 FILLER_0_4_177
*1367 FILLER_0_4_189
*1368 FILLER_0_4_195
*1369 FILLER_0_4_197
*1370 FILLER_0_4_209
*1371 FILLER_0_4_221
*1372 FILLER_0_4_233
*1373 FILLER_0_4_245
*1374 FILLER_0_4_251
*1375 FILLER_0_4_253
*1376 FILLER_0_4_265
*1377 FILLER_0_4_27
*1378 FILLER_0_4_277
*1379 FILLER_0_4_289
*1380 FILLER_0_4_29
*1381 FILLER_0_4_3
*1382 FILLER_0_4_301
*1383 FILLER_0_4_307
*1384 FILLER_0_4_309
*1385 FILLER_0_4_321
*1386 FILLER_0_4_333
*1387 FILLER_0_4_345
*1388 FILLER_0_4_41
*1389 FILLER_0_4_53
*1390 FILLER_0_4_65
*1391 FILLER_0_4_77
*1392 FILLER_0_4_83
*1393 FILLER_0_4_85
*1394 FILLER_0_4_97
*1395 FILLER_0_5_105
*1396 FILLER_0_5_111
*1397 FILLER_0_5_113
*1398 FILLER_0_5_125
*1399 FILLER_0_5_137
*1400 FILLER_0_5_149
*1401 FILLER_0_5_15
*1402 FILLER_0_5_161
*1403 FILLER_0_5_167
*1404 FILLER_0_5_169
*1405 FILLER_0_5_181
*1406 FILLER_0_5_193
*1407 FILLER_0_5_205
*1408 FILLER_0_5_217
*1409 FILLER_0_5_223
*1410 FILLER_0_5_225
*1411 FILLER_0_5_237
*1412 FILLER_0_5_249
*1413 FILLER_0_5_261
*1414 FILLER_0_5_27
*1415 FILLER_0_5_273
*1416 FILLER_0_5_279
*1417 FILLER_0_5_281
*1418 FILLER_0_5_293
*1419 FILLER_0_5_3
*1420 FILLER_0_5_305
*1421 FILLER_0_5_317
*1422 FILLER_0_5_329
*1423 FILLER_0_5_335
*1424 FILLER_0_5_337
*1425 FILLER_0_5_349
*1426 FILLER_0_5_39
*1427 FILLER_0_5_51
*1428 FILLER_0_5_55
*1429 FILLER_0_5_57
*1430 FILLER_0_5_69
*1431 FILLER_0_5_81
*1432 FILLER_0_5_93
*1433 FILLER_0_6_109
*1434 FILLER_0_6_121
*1435 FILLER_0_6_133
*1436 FILLER_0_6_139
*1437 FILLER_0_6_141
*1438 FILLER_0_6_15
*1439 FILLER_0_6_153
*1440 FILLER_0_6_165
*1441 FILLER_0_6_177
*1442 FILLER_0_6_189
*1443 FILLER_0_6_195
*1444 FILLER_0_6_197
*1445 FILLER_0_6_209
*1446 FILLER_0_6_221
*1447 FILLER_0_6_233
*1448 FILLER_0_6_245
*1449 FILLER_0_6_251
*1450 FILLER_0_6_253
*1451 FILLER_0_6_265
*1452 FILLER_0_6_27
*1453 FILLER_0_6_277
*1454 FILLER_0_6_289
*1455 FILLER_0_6_29
*1456 FILLER_0_6_3
*1457 FILLER_0_6_301
*1458 FILLER_0_6_307
*1459 FILLER_0_6_309
*1460 FILLER_0_6_321
*1461 FILLER_0_6_333
*1462 FILLER_0_6_345
*1463 FILLER_0_6_41
*1464 FILLER_0_6_53
*1465 FILLER_0_6_65
*1466 FILLER_0_6_77
*1467 FILLER_0_6_83
*1468 FILLER_0_6_85
*1469 FILLER_0_6_97
*1470 FILLER_0_7_105
*1471 FILLER_0_7_111
*1472 FILLER_0_7_113
*1473 FILLER_0_7_125
*1474 FILLER_0_7_137
*1475 FILLER_0_7_149
*1476 FILLER_0_7_15
*1477 FILLER_0_7_161
*1478 FILLER_0_7_167
*1479 FILLER_0_7_169
*1480 FILLER_0_7_181
*1481 FILLER_0_7_193
*1482 FILLER_0_7_205
*1483 FILLER_0_7_217
*1484 FILLER_0_7_223
*1485 FILLER_0_7_225
*1486 FILLER_0_7_237
*1487 FILLER_0_7_249
*1488 FILLER_0_7_261
*1489 FILLER_0_7_27
*1490 FILLER_0_7_273
*1491 FILLER_0_7_279
*1492 FILLER_0_7_281
*1493 FILLER_0_7_293
*1494 FILLER_0_7_3
*1495 FILLER_0_7_305
*1496 FILLER_0_7_317
*1497 FILLER_0_7_329
*1498 FILLER_0_7_335
*1499 FILLER_0_7_337
*1500 FILLER_0_7_349
*1501 FILLER_0_7_39
*1502 FILLER_0_7_51
*1503 FILLER_0_7_55
*1504 FILLER_0_7_57
*1505 FILLER_0_7_69