*SPEF "ieee 1481-1999"
*DESIGN "tt_um_chip_inventor_music__6_bit_count"
*DATE "11:11:11 Fri 11 11, 1111"
*VENDOR "OpenRCX"
*PROGRAM "Parallel Extraction"
*VERSION "1.0"
*DESIGN_FLOW "NAME_SCOPE LOCAL" "PIN_CAP NONE"
*DIVIDER /
*DELIMITER :
*BUS_DELIMITER []
*T_UNIT 1 NS
*C_UNIT 1 PF
*R_UNIT 1 OHM
*L_UNIT 1 HENRY

*NAME_MAP
*3 clk
*4 ena
*5 rst_n
*6 ui_in[0]
*7 ui_in[1]
*8 ui_in[2]
*9 ui_in[3]
*10 ui_in[4]
*11 ui_in[5]
*12 ui_in[6]
*13 ui_in[7]
*14 uio_in[0]
*15 uio_in[1]
*16 uio_in[2]
*17 uio_in[3]
*18 uio_in[4]
*19 uio_in[5]
*20 uio_in[6]
*21 uio_in[7]
*22 net12
*23 net13
*24 net14
*25 net15
*26 net16
*27 net17
*28 net18
*29 net19
*30 net3
*31 net4
*32 net5
*33 net6
*34 net7
*35 net8
*36 net9
*37 net10
*38 uo_out[0]
*39 uo_out[1]
*40 uo_out[2]
*41 uo_out[3]
*42 uo_out[4]
*43 uo_out[5]
*44 uo_out[6]
*45 net11
*46 _000_
*47 _001_
*48 _002_
*49 _003_
*50 _004_
*51 _005_
*52 _006_
*53 _007_
*54 _008_
*55 _009_
*56 _010_
*57 _011_
*58 _012_
*59 _013_
*60 _014_
*61 _015_
*62 _016_
*63 _017_
*64 _018_
*65 _019_
*66 _020_
*67 _021_
*68 _022_
*69 _023_
*70 _024_
*71 _025_
*72 _026_
*73 _027_
*74 _028_
*75 _029_
*76 _030_
*77 _031_
*78 _032_
*79 _033_
*80 _034_
*81 _035_
*82 _036_
*83 _037_
*84 _038_
*85 _039_
*86 _040_
*87 _041_
*88 _042_
*89 _043_
*90 _044_
*91 _045_
*92 _046_
*93 _047_
*94 _048_
*95 _049_
*96 _050_
*97 _051_
*98 _052_
*99 _053_
*100 _054_
*101 _055_
*102 _056_
*103 _057_
*104 _058_
*105 _059_
*106 _060_
*107 _061_
*108 _062_
*109 _063_
*110 _064_
*111 _065_
*112 _066_
*113 _067_
*114 _068_
*115 _069_
*116 _070_
*117 _071_
*118 _072_
*119 _073_
*120 _074_
*121 _075_
*122 _076_
*123 _077_
*124 _078_
*125 _079_
*126 _080_
*127 _081_
*128 _082_
*129 _083_
*130 _084_
*131 _085_
*132 _086_
*133 _087_
*134 _088_
*135 _089_
*136 _090_
*137 _091_
*138 _092_
*139 _093_
*140 _094_
*141 _095_
*142 _096_
*143 _097_
*144 _098_
*145 _099_
*146 _100_
*147 _101_
*148 _102_
*149 _103_
*150 _104_
*151 _105_
*152 _106_
*153 _107_
*154 _108_
*155 _109_
*156 _110_
*157 _111_
*158 _112_
*159 _113_
*160 _114_
*161 _115_
*162 _116_
*163 _117_
*164 _118_
*165 _119_
*166 _120_
*167 _121_
*168 _122_
*169 _123_
*170 _124_
*171 _125_
*172 _126_
*173 _127_
*174 _128_
*175 _129_
*176 _130_
*177 _131_
*178 _132_
*179 _133_
*180 _134_
*181 _135_
*182 _136_
*183 _137_
*184 _138_
*185 _139_
*186 _140_
*187 _141_
*188 _142_
*189 _143_
*190 _144_
*191 _145_
*192 _146_
*193 _147_
*194 _148_
*195 _149_
*196 _150_
*197 _151_
*198 _152_
*199 _153_
*200 _154_
*201 _155_
*202 _156_
*203 _157_
*204 _158_
*205 _159_
*206 _160_
*207 _161_
*208 _162_
*209 _163_
*210 _164_
*211 _165_
*212 _166_
*213 _167_
*214 _168_
*215 _169_
*216 _170_
*217 _171_
*218 _172_
*219 _173_
*220 _174_
*221 _175_
*222 _176_
*223 _177_
*224 _178_
*225 _179_
*226 _180_
*227 _181_
*228 _182_
*229 _183_
*230 _184_
*231 _185_
*232 _186_
*233 _187_
*234 _188_
*235 _189_
*236 _190_
*237 _191_
*238 _192_
*239 _193_
*240 blk173_7\.a
*241 blk173_7\.b
*242 blk173_7\.c
*243 blk173_7\.count\[0\]
*244 blk173_7\.count\[1\]
*245 blk173_7\.count\[2\]
*246 blk173_7\.count\[3\]
*247 blk173_7\.count\[4\]
*248 blk173_7\.count\[5\]
*249 blk173_7\.d
*250 blk173_7\.e
*251 blk173_7\.f
*252 blk202_1\.count_freq\[0\]
*253 blk202_1\.count_freq\[10\]
*254 blk202_1\.count_freq\[11\]
*255 blk202_1\.count_freq\[12\]
*256 blk202_1\.count_freq\[13\]
*257 blk202_1\.count_freq\[14\]
*258 blk202_1\.count_freq\[15\]
*259 blk202_1\.count_freq\[16\]
*260 blk202_1\.count_freq\[17\]
*261 blk202_1\.count_freq\[18\]
*262 blk202_1\.count_freq\[19\]
*263 blk202_1\.count_freq\[1\]
*264 blk202_1\.count_freq\[20\]
*265 blk202_1\.count_freq\[2\]
*266 blk202_1\.count_freq\[3\]
*267 blk202_1\.count_freq\[4\]
*268 blk202_1\.count_freq\[5\]
*269 blk202_1\.count_freq\[6\]
*270 blk202_1\.count_freq\[7\]
*271 blk202_1\.count_freq\[8\]
*272 blk202_1\.count_freq\[9\]
*273 blk202_1\.out
*274 blk2_4\.Y
*275 blk5_10\.Q
*276 blk5_11\.Q
*277 blk5_12\.Q
*278 blk5_13\.Q
*279 blk5_14\.Q
*280 blk5_9\.Q
*281 blk80_8\.counter\[0\]
*282 blk80_8\.counter\[10\]
*283 blk80_8\.counter\[11\]
*284 blk80_8\.counter\[12\]
*285 blk80_8\.counter\[13\]
*286 blk80_8\.counter\[14\]
*287 blk80_8\.counter\[15\]
*288 blk80_8\.counter\[16\]
*289 blk80_8\.counter\[17\]
*290 blk80_8\.counter\[18\]
*291 blk80_8\.counter\[19\]
*292 blk80_8\.counter\[1\]
*293 blk80_8\.counter\[20\]
*294 blk80_8\.counter\[21\]
*295 blk80_8\.counter\[22\]
*296 blk80_8\.counter\[23\]
*297 blk80_8\.counter\[24\]
*298 blk80_8\.counter\[25\]
*299 blk80_8\.counter\[26\]
*300 blk80_8\.counter\[2\]
*301 blk80_8\.counter\[3\]
*302 blk80_8\.counter\[4\]
*303 blk80_8\.counter\[5\]
*304 blk80_8\.counter\[6\]
*305 blk80_8\.counter\[7\]
*306 blk80_8\.counter\[8\]
*307 blk80_8\.counter\[9\]
*308 blk80_8\.out
*309 clknet_0_clk
*310 clknet_2_0__leaf_clk
*311 clknet_2_1__leaf_clk
*312 clknet_2_2__leaf_clk
*313 clknet_2_3__leaf_clk
*314 net1
*315 net2
*316 net20
*317 net21
*318 net22
*319 net23
*320 net24
*321 net25
*322 net26
*323 net27
*324 net28
*325 net29
*326 net30
*327 net31
*328 net32
*329 net33
*330 net34
*331 net35
*332 net36
*333 net37
*334 net38
*335 net39
*336 net40
*337 net41
*338 net42
*339 net43
*340 net44
*341 net45
*342 net46
*343 net47
*344 net48
*345 net49
*346 net50
*347 net51
*348 net52
*349 net53
*350 net54
*351 net55
*352 net56
*353 net57
*354 FILLER_0_0_109
*355 FILLER_0_0_113
*356 FILLER_0_0_125
*357 FILLER_0_0_137
*358 FILLER_0_0_141
*359 FILLER_0_0_15
*360 FILLER_0_0_153
*361 FILLER_0_0_165
*362 FILLER_0_0_169
*363 FILLER_0_0_181
*364 FILLER_0_0_193
*365 FILLER_0_0_197
*366 FILLER_0_0_209
*367 FILLER_0_0_221
*368 FILLER_0_0_225
*369 FILLER_0_0_237
*370 FILLER_0_0_249
*371 FILLER_0_0_253
*372 FILLER_0_0_265
*373 FILLER_0_0_27
*374 FILLER_0_0_277
*375 FILLER_0_0_281
*376 FILLER_0_0_29
*377 FILLER_0_0_293
*378 FILLER_0_0_3
*379 FILLER_0_0_305
*380 FILLER_0_0_309
*381 FILLER_0_0_321
*382 FILLER_0_0_333
*383 FILLER_0_0_337
*384 FILLER_0_0_349
*385 FILLER_0_0_41
*386 FILLER_0_0_53
*387 FILLER_0_0_57
*388 FILLER_0_0_69
*389 FILLER_0_0_81
*390 FILLER_0_0_85
*391 FILLER_0_0_97
*392 FILLER_0_10_109
*393 FILLER_0_10_121
*394 FILLER_0_10_133
*395 FILLER_0_10_139
*396 FILLER_0_10_141
*397 FILLER_0_10_15
*398 FILLER_0_10_153
*399 FILLER_0_10_165
*400 FILLER_0_10_177
*401 FILLER_0_10_189
*402 FILLER_0_10_195
*403 FILLER_0_10_197
*404 FILLER_0_10_209
*405 FILLER_0_10_221
*406 FILLER_0_10_233
*407 FILLER_0_10_245
*408 FILLER_0_10_251
*409 FILLER_0_10_253
*410 FILLER_0_10_265
*411 FILLER_0_10_27
*412 FILLER_0_10_277
*413 FILLER_0_10_289
*414 FILLER_0_10_29
*415 FILLER_0_10_3
*416 FILLER_0_10_301
*417 FILLER_0_10_307
*418 FILLER_0_10_309
*419 FILLER_0_10_321
*420 FILLER_0_10_333
*421 FILLER_0_10_345
*422 FILLER_0_10_41
*423 FILLER_0_10_53
*424 FILLER_0_10_65
*425 FILLER_0_10_77
*426 FILLER_0_10_83
*427 FILLER_0_10_85
*428 FILLER_0_10_97
*429 FILLER_0_11_105
*430 FILLER_0_11_111
*431 FILLER_0_11_113
*432 FILLER_0_11_125
*433 FILLER_0_11_137
*434 FILLER_0_11_149
*435 FILLER_0_11_15
*436 FILLER_0_11_161
*437 FILLER_0_11_167
*438 FILLER_0_11_169
*439 FILLER_0_11_181
*440 FILLER_0_11_193
*441 FILLER_0_11_205
*442 FILLER_0_11_217
*443 FILLER_0_11_223
*444 FILLER_0_11_225
*445 FILLER_0_11_237
*446 FILLER_0_11_249
*447 FILLER_0_11_261
*448 FILLER_0_11_27
*449 FILLER_0_11_273
*450 FILLER_0_11_279
*451 FILLER_0_11_281
*452 FILLER_0_11_293
*453 FILLER_0_11_3
*454 FILLER_0_11_305
*455 FILLER_0_11_317
*456 FILLER_0_11_329
*457 FILLER_0_11_335
*458 FILLER_0_11_337
*459 FILLER_0_11_349
*460 FILLER_0_11_39
*461 FILLER_0_11_51
*462 FILLER_0_11_55
*463 FILLER_0_11_57
*464 FILLER_0_11_69
*465 FILLER_0_11_81
*466 FILLER_0_11_93
*467 FILLER_0_12_109
*468 FILLER_0_12_121
*469 FILLER_0_12_133
*470 FILLER_0_12_139
*471 FILLER_0_12_141
*472 FILLER_0_12_15
*473 FILLER_0_12_153
*474 FILLER_0_12_165
*475 FILLER_0_12_177
*476 FILLER_0_12_189
*477 FILLER_0_12_195
*478 FILLER_0_12_197
*479 FILLER_0_12_209
*480 FILLER_0_12_221
*481 FILLER_0_12_233
*482 FILLER_0_12_245
*483 FILLER_0_12_251
*484 FILLER_0_12_253
*485 FILLER_0_12_265
*486 FILLER_0_12_27
*487 FILLER_0_12_277
*488 FILLER_0_12_289
*489 FILLER_0_12_29
*490 FILLER_0_12_3
*491 FILLER_0_12_301
*492 FILLER_0_12_307
*493 FILLER_0_12_309
*494 FILLER_0_12_321
*495 FILLER_0_12_333
*496 FILLER_0_12_345
*497 FILLER_0_12_41
*498 FILLER_0_12_53
*499 FILLER_0_12_65
*500 FILLER_0_12_77
*501 FILLER_0_12_83
*502 FILLER_0_12_85
*503 FILLER_0_12_97
*504 FILLER_0_13_105
*505 FILLER_0_13_111
*506 FILLER_0_13_113
*507 FILLER_0_13_125
*508 FILLER_0_13_137
*509 FILLER_0_13_149
*510 FILLER_0_13_15
*511 FILLER_0_13_161
*512 FILLER_0_13_167
*513 FILLER_0_13_169
*514 FILLER_0_13_181
*515 FILLER_0_13_193
*516 FILLER_0_13_205
*517 FILLER_0_13_217
*518 FILLER_0_13_223
*519 FILLER_0_13_225
*520 FILLER_0_13_237
*521 FILLER_0_13_249
*522 FILLER_0_13_261
*523 FILLER_0_13_27
*524 FILLER_0_13_273
*525 FILLER_0_13_279
*526 FILLER_0_13_281
*527 FILLER_0_13_293
*528 FILLER_0_13_3
*529 FILLER_0_13_305
*530 FILLER_0_13_317
*531 FILLER_0_13_329
*532 FILLER_0_13_335
*533 FILLER_0_13_337
*534 FILLER_0_13_349
*535 FILLER_0_13_39
*536 FILLER_0_13_51
*537 FILLER_0_13_55
*538 FILLER_0_13_57
*539 FILLER_0_13_69
*540 FILLER_0_13_81
*541 FILLER_0_13_93
*542 FILLER_0_14_109
*543 FILLER_0_14_121
*544 FILLER_0_14_133
*545 FILLER_0_14_139
*546 FILLER_0_14_141
*547 FILLER_0_14_15
*548 FILLER_0_14_153
*549 FILLER_0_14_165
*550 FILLER_0_14_177
*551 FILLER_0_14_189
*552 FILLER_0_14_195
*553 FILLER_0_14_197
*554 FILLER_0_14_209
*555 FILLER_0_14_221
*556 FILLER_0_14_233
*557 FILLER_0_14_245
*558 FILLER_0_14_251
*559 FILLER_0_14_253
*560 FILLER_0_14_265
*561 FILLER_0_14_27
*562 FILLER_0_14_277
*563 FILLER_0_14_289
*564 FILLER_0_14_29
*565 FILLER_0_14_3
*566 FILLER_0_14_301
*567 FILLER_0_14_307
*568 FILLER_0_14_309
*569 FILLER_0_14_321
*570 FILLER_0_14_333
*571 FILLER_0_14_345
*572 FILLER_0_14_41
*573 FILLER_0_14_53
*574 FILLER_0_14_65
*575 FILLER_0_14_77
*576 FILLER_0_14_83
*577 FILLER_0_14_85
*578 FILLER_0_14_97
*579 FILLER_0_15_105
*580 FILLER_0_15_111
*581 FILLER_0_15_113
*582 FILLER_0_15_125
*583 FILLER_0_15_137
*584 FILLER_0_15_149
*585 FILLER_0_15_15
*586 FILLER_0_15_161
*587 FILLER_0_15_167
*588 FILLER_0_15_169
*589 FILLER_0_15_181
*590 FILLER_0_15_193
*591 FILLER_0_15_205
*592 FILLER_0_15_217
*593 FILLER_0_15_223
*594 FILLER_0_15_225
*595 FILLER_0_15_237
*596 FILLER_0_15_249
*597 FILLER_0_15_261
*598 FILLER_0_15_27
*599 FILLER_0_15_273
*600 FILLER_0_15_279
*601 FILLER_0_15_281
*602 FILLER_0_15_293
*603 FILLER_0_15_3
*604 FILLER_0_15_305
*605 FILLER_0_15_317
*606 FILLER_0_15_329
*607 FILLER_0_15_335
*608 FILLER_0_15_337
*609 FILLER_0_15_349
*610 FILLER_0_15_39
*611 FILLER_0_15_51
*612 FILLER_0_15_55
*613 FILLER_0_15_57
*614 FILLER_0_15_69
*615 FILLER_0_15_81
*616 FILLER_0_15_93
*617 FILLER_0_16_109
*618 FILLER_0_16_121
*619 FILLER_0_16_133
*620 FILLER_0_16_139
*621 FILLER_0_16_141
*622 FILLER_0_16_15
*623 FILLER_0_16_153
*624 FILLER_0_16_165
*625 FILLER_0_16_177
*626 FILLER_0_16_189
*627 FILLER_0_16_195
*628 FILLER_0_16_197
*629 FILLER_0_16_209
*630 FILLER_0_16_221
*631 FILLER_0_16_233
*632 FILLER_0_16_245
*633 FILLER_0_16_251
*634 FILLER_0_16_253
*635 FILLER_0_16_265
*636 FILLER_0_16_27
*637 FILLER_0_16_277
*638 FILLER_0_16_289
*639 FILLER_0_16_29
*640 FILLER_0_16_3
*641 FILLER_0_16_301
*642 FILLER_0_16_307
*643 FILLER_0_16_309
*644 FILLER_0_16_321
*645 FILLER_0_16_333
*646 FILLER_0_16_345
*647 FILLER_0_16_41
*648 FILLER_0_16_53
*649 FILLER_0_16_65
*650 FILLER_0_16_77
*651 FILLER_0_16_83
*652 FILLER_0_16_85
*653 FILLER_0_16_97
*654 FILLER_0_17_105
*655 FILLER_0_17_111
*656 FILLER_0_17_113
*657 FILLER_0_17_125
*658 FILLER_0_17_137
*659 FILLER_0_17_149
*660 FILLER_0_17_15
*661 FILLER_0_17_161
*662 FILLER_0_17_167
*663 FILLER_0_17_169
*664 FILLER_0_17_181
*665 FILLER_0_17_193
*666 FILLER_0_17_205
*667 FILLER_0_17_217
*668 FILLER_0_17_223
*669 FILLER_0_17_225
*670 FILLER_0_17_237
*671 FILLER_0_17_249
*672 FILLER_0_17_261
*673 FILLER_0_17_27
*674 FILLER_0_17_273
*675 FILLER_0_17_279
*676 FILLER_0_17_281
*677 FILLER_0_17_293
*678 FILLER_0_17_3
*679 FILLER_0_17_305
*680 FILLER_0_17_317
*681 FILLER_0_17_329
*682 FILLER_0_17_335
*683 FILLER_0_17_337
*684 FILLER_0_17_349
*685 FILLER_0_17_39
*686 FILLER_0_17_51
*687 FILLER_0_17_55
*688 FILLER_0_17_57
*689 FILLER_0_17_69
*690 FILLER_0_17_81
*691 FILLER_0_17_93
*692 FILLER_0_18_109
*693 FILLER_0_18_121
*694 FILLER_0_18_133
*695 FILLER_0_18_139
*696 FILLER_0_18_141
*697 FILLER_0_18_15
*698 FILLER_0_18_153
*699 FILLER_0_18_165
*700 FILLER_0_18_177
*701 FILLER_0_18_189
*702 FILLER_0_18_195
*703 FILLER_0_18_197
*704 FILLER_0_18_209
*705 FILLER_0_18_221
*706 FILLER_0_18_233
*707 FILLER_0_18_245
*708 FILLER_0_18_251
*709 FILLER_0_18_253
*710 FILLER_0_18_265
*711 FILLER_0_18_27
*712 FILLER_0_18_277
*713 FILLER_0_18_289
*714 FILLER_0_18_29
*715 FILLER_0_18_3
*716 FILLER_0_18_301
*717 FILLER_0_18_307
*718 FILLER_0_18_309
*719 FILLER_0_18_321
*720 FILLER_0_18_333
*721 FILLER_0_18_345
*722 FILLER_0_18_41
*723 FILLER_0_18_53
*724 FILLER_0_18_65
*725 FILLER_0_18_77
*726 FILLER_0_18_83
*727 FILLER_0_18_85
*728 FILLER_0_18_97
*729 FILLER_0_19_105
*730 FILLER_0_19_111
*731 FILLER_0_19_113
*732 FILLER_0_19_125
*733 FILLER_0_19_137
*734 FILLER_0_19_141
*735 FILLER_0_19_15
*736 FILLER_0_19_162
*737 FILLER_0_19_169
*738 FILLER_0_19_176
*739 FILLER_0_19_188
*740 FILLER_0_19_200
*741 FILLER_0_19_212
*742 FILLER_0_19_216
*743 FILLER_0_19_228
*744 FILLER_0_19_240
*745 FILLER_0_19_252
*746 FILLER_0_19_264
*747 FILLER_0_19_27
*748 FILLER_0_19_276
*749 FILLER_0_19_281
*750 FILLER_0_19_293
*751 FILLER_0_19_3
*752 FILLER_0_19_305
*753 FILLER_0_19_317
*754 FILLER_0_19_329
*755 FILLER_0_19_335
*756 FILLER_0_19_337
*757 FILLER_0_19_349
*758 FILLER_0_19_39
*759 FILLER_0_19_51
*760 FILLER_0_19_55
*761 FILLER_0_19_57
*762 FILLER_0_19_69
*763 FILLER_0_19_81
*764 FILLER_0_19_93
*765 FILLER_0_1_105
*766 FILLER_0_1_111
*767 FILLER_0_1_113
*768 FILLER_0_1_125
*769 FILLER_0_1_137
*770 FILLER_0_1_149
*771 FILLER_0_1_15
*772 FILLER_0_1_161
*773 FILLER_0_1_167
*774 FILLER_0_1_169
*775 FILLER_0_1_181
*776 FILLER_0_1_193
*777 FILLER_0_1_205
*778 FILLER_0_1_217
*779 FILLER_0_1_223
*780 FILLER_0_1_225
*781 FILLER_0_1_237
*782 FILLER_0_1_249
*783 FILLER_0_1_261
*784 FILLER_0_1_27
*785 FILLER_0_1_273
*786 FILLER_0_1_279
*787 FILLER_0_1_281
*788 FILLER_0_1_293
*789 FILLER_0_1_3
*790 FILLER_0_1_305
*791 FILLER_0_1_317
*792 FILLER_0_1_329
*793 FILLER_0_1_335
*794 FILLER_0_1_337
*795 FILLER_0_1_349
*796 FILLER_0_1_39
*797 FILLER_0_1_51
*798 FILLER_0_1_55
*799 FILLER_0_1_57
*800 FILLER_0_1_69
*801 FILLER_0_1_81
*802 FILLER_0_1_93
*803 FILLER_0_20_109
*804 FILLER_0_20_117
*805 FILLER_0_20_139
*806 FILLER_0_20_149
*807 FILLER_0_20_15
*808 FILLER_0_20_153
*809 FILLER_0_20_184
*810 FILLER_0_20_197
*811 FILLER_0_20_219
*812 FILLER_0_20_241
*813 FILLER_0_20_249
*814 FILLER_0_20_253
*815 FILLER_0_20_265
*816 FILLER_0_20_27
*817 FILLER_0_20_277
*818 FILLER_0_20_289
*819 FILLER_0_20_29
*820 FILLER_0_20_3
*821 FILLER_0_20_301
*822 FILLER_0_20_307
*823 FILLER_0_20_309
*824 FILLER_0_20_321
*825 FILLER_0_20_333
*826 FILLER_0_20_345
*827 FILLER_0_20_41
*828 FILLER_0_20_53
*829 FILLER_0_20_65
*830 FILLER_0_20_77
*831 FILLER_0_20_83
*832 FILLER_0_20_85
*833 FILLER_0_20_97
*834 FILLER_0_21_105
*835 FILLER_0_21_111
*836 FILLER_0_21_113
*837 FILLER_0_21_148
*838 FILLER_0_21_15
*839 FILLER_0_21_193
*840 FILLER_0_21_215
*841 FILLER_0_21_223
*842 FILLER_0_21_254
*843 FILLER_0_21_266
*844 FILLER_0_21_27
*845 FILLER_0_21_278
*846 FILLER_0_21_281
*847 FILLER_0_21_293
*848 FILLER_0_21_3
*849 FILLER_0_21_305
*850 FILLER_0_21_317
*851 FILLER_0_21_329
*852 FILLER_0_21_335
*853 FILLER_0_21_337
*854 FILLER_0_21_349
*855 FILLER_0_21_39
*856 FILLER_0_21_51
*857 FILLER_0_21_55
*858 FILLER_0_21_57
*859 FILLER_0_21_69
*860 FILLER_0_21_81
*861 FILLER_0_21_93
*862 FILLER_0_22_109
*863 FILLER_0_22_138
*864 FILLER_0_22_15
*865 FILLER_0_22_154
*866 FILLER_0_22_171
*867 FILLER_0_22_197
*868 FILLER_0_22_204
*869 FILLER_0_22_215
*870 FILLER_0_22_241
*871 FILLER_0_22_249
*872 FILLER_0_22_253
*873 FILLER_0_22_265
*874 FILLER_0_22_27
*875 FILLER_0_22_277
*876 FILLER_0_22_289
*877 FILLER_0_22_29
*878 FILLER_0_22_3
*879 FILLER_0_22_301
*880 FILLER_0_22_307
*881 FILLER_0_22_309
*882 FILLER_0_22_321
*883 FILLER_0_22_333
*884 FILLER_0_22_345
*885 FILLER_0_22_41
*886 FILLER_0_22_53
*887 FILLER_0_22_65
*888 FILLER_0_22_77
*889 FILLER_0_22_83
*890 FILLER_0_22_85
*891 FILLER_0_22_97
*892 FILLER_0_23_105
*893 FILLER_0_23_111
*894 FILLER_0_23_113
*895 FILLER_0_23_121
*896 FILLER_0_23_125
*897 FILLER_0_23_138
*898 FILLER_0_23_15
*899 FILLER_0_23_154
*900 FILLER_0_23_166
*901 FILLER_0_23_169
*902 FILLER_0_23_177
*903 FILLER_0_23_189
*904 FILLER_0_23_201
*905 FILLER_0_23_217
*906 FILLER_0_23_223
*907 FILLER_0_23_228
*908 FILLER_0_23_239
*909 FILLER_0_23_251
*910 FILLER_0_23_263
*911 FILLER_0_23_27
*912 FILLER_0_23_275
*913 FILLER_0_23_279
*914 FILLER_0_23_281
*915 FILLER_0_23_293
*916 FILLER_0_23_3
*917 FILLER_0_23_305
*918 FILLER_0_23_317
*919 FILLER_0_23_329
*920 FILLER_0_23_335
*921 FILLER_0_23_337
*922 FILLER_0_23_349
*923 FILLER_0_23_39
*924 FILLER_0_23_51
*925 FILLER_0_23_55
*926 FILLER_0_23_57
*927 FILLER_0_23_69
*928 FILLER_0_23_81
*929 FILLER_0_23_93
*930 FILLER_0_24_109
*931 FILLER_0_24_120
*932 FILLER_0_24_124
*933 FILLER_0_24_133
*934 FILLER_0_24_139
*935 FILLER_0_24_141
*936 FILLER_0_24_15
*937 FILLER_0_24_152
*938 FILLER_0_24_164
*939 FILLER_0_24_176
*940 FILLER_0_24_186
*941 FILLER_0_24_191
*942 FILLER_0_24_195
*943 FILLER_0_24_197
*944 FILLER_0_24_209
*945 FILLER_0_24_221
*946 FILLER_0_24_228
*947 FILLER_0_24_240
*948 FILLER_0_24_253
*949 FILLER_0_24_259
*950 FILLER_0_24_27
*951 FILLER_0_24_280
*952 FILLER_0_24_29
*953 FILLER_0_24_292
*954 FILLER_0_24_3
*955 FILLER_0_24_304
*956 FILLER_0_24_309
*957 FILLER_0_24_321
*958 FILLER_0_24_333
*959 FILLER_0_24_345
*960 FILLER_0_24_41
*961 FILLER_0_24_53
*962 FILLER_0_24_65
*963 FILLER_0_24_77
*964 FILLER_0_24_83
*965 FILLER_0_24_85
*966 FILLER_0_24_97
*967 FILLER_0_25_105
*968 FILLER_0_25_111
*969 FILLER_0_25_134
*970 FILLER_0_25_15
*971 FILLER_0_25_159
*972 FILLER_0_25_167
*973 FILLER_0_25_169
*974 FILLER_0_25_206
*975 FILLER_0_25_214
*976 FILLER_0_25_241
*977 FILLER_0_25_253
*978 FILLER_0_25_265
*979 FILLER_0_25_27
*980 FILLER_0_25_277
*981 FILLER_0_25_281
*982 FILLER_0_25_293
*983 FILLER_0_25_3
*984 FILLER_0_25_305
*985 FILLER_0_25_317
*986 FILLER_0_25_329
*987 FILLER_0_25_335
*988 FILLER_0_25_337
*989 FILLER_0_25_349
*990 FILLER_0_25_39
*991 FILLER_0_25_51
*992 FILLER_0_25_55
*993 FILLER_0_25_57
*994 FILLER_0_25_69
*995 FILLER_0_25_81
*996 FILLER_0_25_93
*997 FILLER_0_26_109
*998 FILLER_0_26_121
*999 FILLER_0_26_127
*1000 FILLER_0_26_141
*1001 FILLER_0_26_15
*1002 FILLER_0_26_171
*1003 FILLER_0_26_179
*1004 FILLER_0_26_248
*1005 FILLER_0_26_253
*1006 FILLER_0_26_265
*1007 FILLER_0_26_27
*1008 FILLER_0_26_289
*1009 FILLER_0_26_29
*1010 FILLER_0_26_3
*1011 FILLER_0_26_301
*1012 FILLER_0_26_307
*1013 FILLER_0_26_309
*1014 FILLER_0_26_321
*1015 FILLER_0_26_333
*1016 FILLER_0_26_345
*1017 FILLER_0_26_41
*1018 FILLER_0_26_53
*1019 FILLER_0_26_65
*1020 FILLER_0_26_77
*1021 FILLER_0_26_83
*1022 FILLER_0_26_85
*1023 FILLER_0_26_97
*1024 FILLER_0_27_15
*1025 FILLER_0_27_169
*1026 FILLER_0_27_181
*1027 FILLER_0_27_193
*1028 FILLER_0_27_213
*1029 FILLER_0_27_244
*1030 FILLER_0_27_27
*1031 FILLER_0_27_275
*1032 FILLER_0_27_281
*1033 FILLER_0_27_294
*1034 FILLER_0_27_3
*1035 FILLER_0_27_306
*1036 FILLER_0_27_318
*1037 FILLER_0_27_330
*1038 FILLER_0_27_337
*1039 FILLER_0_27_349
*1040 FILLER_0_27_39
*1041 FILLER_0_27_51
*1042 FILLER_0_27_55
*1043 FILLER_0_27_57
*1044 FILLER_0_27_69
*1045 FILLER_0_27_81
*1046 FILLER_0_27_93
*1047 FILLER_0_28_109
*1048 FILLER_0_28_117
*1049 FILLER_0_28_137
*1050 FILLER_0_28_141
*1051 FILLER_0_28_15
*1052 FILLER_0_28_150
*1053 FILLER_0_28_154
*1054 FILLER_0_28_161
*1055 FILLER_0_28_173
*1056 FILLER_0_28_183
*1057 FILLER_0_28_195
*1058 FILLER_0_28_202
*1059 FILLER_0_28_214
*1060 FILLER_0_28_218
*1061 FILLER_0_28_232
*1062 FILLER_0_28_244
*1063 FILLER_0_28_27
*1064 FILLER_0_28_277
*1065 FILLER_0_28_29
*1066 FILLER_0_28_295
*1067 FILLER_0_28_3
*1068 FILLER_0_28_307
*1069 FILLER_0_28_309
*1070 FILLER_0_28_321
*1071 FILLER_0_28_329
*1072 FILLER_0_28_346
*1073 FILLER_0_28_350
*1074 FILLER_0_28_41
*1075 FILLER_0_28_53
*1076 FILLER_0_28_65
*1077 FILLER_0_28_77
*1078 FILLER_0_28_83
*1079 FILLER_0_28_85
*1080 FILLER_0_28_97
*1081 FILLER_0_29_105
*1082 FILLER_0_29_111
*1083 FILLER_0_29_129
*1084 FILLER_0_29_15
*1085 FILLER_0_29_162
*1086 FILLER_0_29_169
*1087 FILLER_0_29_188
*1088 FILLER_0_29_200
*1089 FILLER_0_29_217
*1090 FILLER_0_29_223
*1091 FILLER_0_29_245
*1092 FILLER_0_29_256
*1093 FILLER_0_29_268
*1094 FILLER_0_29_27
*1095 FILLER_0_29_279
*1096 FILLER_0_29_289
*1097 FILLER_0_29_298
*1098 FILLER_0_29_3
*1099 FILLER_0_29_304
*1100 FILLER_0_29_332
*1101 FILLER_0_29_345
*1102 FILLER_0_29_39
*1103 FILLER_0_29_51
*1104 FILLER_0_29_55
*1105 FILLER_0_29_57
*1106 FILLER_0_29_69
*1107 FILLER_0_29_81
*1108 FILLER_0_29_93
*1109 FILLER_0_2_109
*1110 FILLER_0_2_121
*1111 FILLER_0_2_133
*1112 FILLER_0_2_139
*1113 FILLER_0_2_141
*1114 FILLER_0_2_15
*1115 FILLER_0_2_153
*1116 FILLER_0_2_165
*1117 FILLER_0_2_177
*1118 FILLER_0_2_189
*1119 FILLER_0_2_195
*1120 FILLER_0_2_197
*1121 FILLER_0_2_209
*1122 FILLER_0_2_221
*1123 FILLER_0_2_233
*1124 FILLER_0_2_245
*1125 FILLER_0_2_251
*1126 FILLER_0_2_253
*1127 FILLER_0_2_265
*1128 FILLER_0_2_27
*1129 FILLER_0_2_277
*1130 FILLER_0_2_289
*1131 FILLER_0_2_29
*1132 FILLER_0_2_3
*1133 FILLER_0_2_301
*1134 FILLER_0_2_307
*1135 FILLER_0_2_309
*1136 FILLER_0_2_321
*1137 FILLER_0_2_333
*1138 FILLER_0_2_345
*1139 FILLER_0_2_41
*1140 FILLER_0_2_53
*1141 FILLER_0_2_65
*1142 FILLER_0_2_77
*1143 FILLER_0_2_83
*1144 FILLER_0_2_85
*1145 FILLER_0_2_97
*1146 FILLER_0_30_121
*1147 FILLER_0_30_149
*1148 FILLER_0_30_15
*1149 FILLER_0_30_161
*1150 FILLER_0_30_213
*1151 FILLER_0_30_225
*1152 FILLER_0_30_233
*1153 FILLER_0_30_238
*1154 FILLER_0_30_248
*1155 FILLER_0_30_253
*1156 FILLER_0_30_265
*1157 FILLER_0_30_27
*1158 FILLER_0_30_273
*1159 FILLER_0_30_288
*1160 FILLER_0_30_29
*1161 FILLER_0_30_3
*1162 FILLER_0_30_343
*1163 FILLER_0_30_41
*1164 FILLER_0_30_53
*1165 FILLER_0_30_65
*1166 FILLER_0_30_77
*1167 FILLER_0_30_83
*1168 FILLER_0_30_85
*1169 FILLER_0_30_97
*1170 FILLER_0_31_101
*1171 FILLER_0_31_113
*1172 FILLER_0_31_15
*1173 FILLER_0_31_158
*1174 FILLER_0_31_166
*1175 FILLER_0_31_169
*1176 FILLER_0_31_176
*1177 FILLER_0_31_183
*1178 FILLER_0_31_195
*1179 FILLER_0_31_219
*1180 FILLER_0_31_223
*1181 FILLER_0_31_225
*1182 FILLER_0_31_250
*1183 FILLER_0_31_27
*1184 FILLER_0_31_270
*1185 FILLER_0_31_279
*1186 FILLER_0_31_281
*1187 FILLER_0_31_294
*1188 FILLER_0_31_3
*1189 FILLER_0_31_300
*1190 FILLER_0_31_318
*1191 FILLER_0_31_335
*1192 FILLER_0_31_348
*1193 FILLER_0_31_39
*1194 FILLER_0_31_51
*1195 FILLER_0_31_55
*1196 FILLER_0_31_57
*1197 FILLER_0_31_69
*1198 FILLER_0_31_81
*1199 FILLER_0_31_93
*1200 FILLER_0_32_112
*1201 FILLER_0_32_124
*1202 FILLER_0_32_134
*1203 FILLER_0_32_148
*1204 FILLER_0_32_15
*1205 FILLER_0_32_160
*1206 FILLER_0_32_172
*1207 FILLER_0_32_184
*1208 FILLER_0_32_197
*1209 FILLER_0_32_206
*1210 FILLER_0_32_214
*1211 FILLER_0_32_257
*1212 FILLER_0_32_27
*1213 FILLER_0_32_289
*1214 FILLER_0_32_29
*1215 FILLER_0_32_3
*1216 FILLER_0_32_301
*1217 FILLER_0_32_307
*1218 FILLER_0_32_314
*1219 FILLER_0_32_344
*1220 FILLER_0_32_350
*1221 FILLER_0_32_41
*1222 FILLER_0_32_53
*1223 FILLER_0_32_65
*1224 FILLER_0_32_77
*1225 FILLER_0_32_83
*1226 FILLER_0_32_85
*1227 FILLER_0_32_97
*1228 FILLER_0_33_105
*1229 FILLER_0_33_111
*1230 FILLER_0_33_113
*1231 FILLER_0_33_125
*1232 FILLER_0_33_137
*1233 FILLER_0_33_141
*1234 FILLER_0_33_15
*1235 FILLER_0_33_162
*1236 FILLER_0_33_169
*1237 FILLER_0_33_177
*1238 FILLER_0_33_196
*1239 FILLER_0_33_208
*1240 FILLER_0_33_220
*1241 FILLER_0_33_225
*1242 FILLER_0_33_259
*1243 FILLER_0_33_263
*1244 FILLER_0_33_27
*1245 FILLER_0_33_277
*1246 FILLER_0_33_281
*1247 FILLER_0_33_298
*1248 FILLER_0_33_3
*1249 FILLER_0_33_310
*1250 FILLER_0_33_314
*1251 FILLER_0_33_325
*1252 FILLER_0_33_333
*1253 FILLER_0_33_337
*1254 FILLER_0_33_349
*1255 FILLER_0_33_39
*1256 FILLER_0_33_51
*1257 FILLER_0_33_55
*1258 FILLER_0_33_57
*1259 FILLER_0_33_69
*1260 FILLER_0_33_81
*1261 FILLER_0_33_93
*1262 FILLER_0_34_109
*1263 FILLER_0_34_117
*1264 FILLER_0_34_126
*1265 FILLER_0_34_138
*1266 FILLER_0_34_141
*1267 FILLER_0_34_147
*1268 FILLER_0_34_15
*1269 FILLER_0_34_151
*1270 FILLER_0_34_155
*1271 FILLER_0_34_167
*1272 FILLER_0_34_173
*1273 FILLER_0_34_204
*1274 FILLER_0_34_216
*1275 FILLER_0_34_224
*1276 FILLER_0_34_233
*1277 FILLER_0_34_241
*1278 FILLER_0_34_248
*1279 FILLER_0_34_253
*1280 FILLER_0_34_259
*1281 FILLER_0_34_27
*1282 FILLER_0_34_280
*1283 FILLER_0_34_29
*1284 FILLER_0_34_292
*1285 FILLER_0_34_3
*1286 FILLER_0_34_304
*1287 FILLER_0_34_332
*1288 FILLER_0_34_344
*1289 FILLER_0_34_350
*1290 FILLER_0_34_41
*1291 FILLER_0_34_53
*1292 FILLER_0_34_65
*1293 FILLER_0_34_77
*1294 FILLER_0_34_83
*1295 FILLER_0_34_85
*1296 FILLER_0_34_97
*1297 FILLER_0_35_105
*1298 FILLER_0_35_134
*1299 FILLER_0_35_142
*1300 FILLER_0_35_15
*1301 FILLER_0_35_164
*1302 FILLER_0_35_169
*1303 FILLER_0_35_177
*1304 FILLER_0_35_203
*1305 FILLER_0_35_215
*1306 FILLER_0_35_223
*1307 FILLER_0_35_241
*1308 FILLER_0_35_258
*1309 FILLER_0_35_27
*1310 FILLER_0_35_291
*1311 FILLER_0_35_3
*1312 FILLER_0_35_303
*1313 FILLER_0_35_309
*1314 FILLER_0_35_317
*1315 FILLER_0_35_345
*1316 FILLER_0_35_39
*1317 FILLER_0_35_51
*1318 FILLER_0_35_55
*1319 FILLER_0_35_57
*1320 FILLER_0_35_69
*1321 FILLER_0_35_81
*1322 FILLER_0_35_93
*1323 FILLER_0_36_109
*1324 FILLER_0_36_131
*1325 FILLER_0_36_139
*1326 FILLER_0_36_141
*1327 FILLER_0_36_15
*1328 FILLER_0_36_168
*1329 FILLER_0_36_209
*1330 FILLER_0_36_240
*1331 FILLER_0_36_251
*1332 FILLER_0_36_253
*1333 FILLER_0_36_27
*1334 FILLER_0_36_29
*1335 FILLER_0_36_294
*1336 FILLER_0_36_3
*1337 FILLER_0_36_302
*1338 FILLER_0_36_346
*1339 FILLER_0_36_350
*1340 FILLER_0_36_41
*1341 FILLER_0_36_53
*1342 FILLER_0_36_65
*1343 FILLER_0_36_77
*1344 FILLER_0_36_83
*1345 FILLER_0_36_85
*1346 FILLER_0_36_97
*1347 FILLER_0_37_105
*1348 FILLER_0_37_111
*1349 FILLER_0_37_113
*1350 FILLER_0_37_121
*1351 FILLER_0_37_133
*1352 FILLER_0_37_15
*1353 FILLER_0_37_166
*1354 FILLER_0_37_180
*1355 FILLER_0_37_184
*1356 FILLER_0_37_225
*1357 FILLER_0_37_246
*1358 FILLER_0_37_27
*1359 FILLER_0_37_281
*1360 FILLER_0_37_3
*1361 FILLER_0_37_304
*1362 FILLER_0_37_321
*1363 FILLER_0_37_327
*1364 FILLER_0_37_335
*1365 FILLER_0_37_337
*1366 FILLER_0_37_349
*1367 FILLER_0_37_39
*1368 FILLER_0_37_51
*1369 FILLER_0_37_55
*1370 FILLER_0_37_57
*1371 FILLER_0_37_69
*1372 FILLER_0_37_81
*1373 FILLER_0_37_93
*1374 FILLER_0_38_104
*1375 FILLER_0_38_110
*1376 FILLER_0_38_116
*1377 FILLER_0_38_122
*1378 FILLER_0_38_128
*1379 FILLER_0_38_134
*1380 FILLER_0_38_141
*1381 FILLER_0_38_146
*1382 FILLER_0_38_15
*1383 FILLER_0_38_165
*1384 FILLER_0_38_169
*1385 FILLER_0_38_181
*1386 FILLER_0_38_193
*1387 FILLER_0_38_197
*1388 FILLER_0_38_205
*1389 FILLER_0_38_213
*1390 FILLER_0_38_223
*1391 FILLER_0_38_225
*1392 FILLER_0_38_235
*1393 FILLER_0_38_247
*1394 FILLER_0_38_251
*1395 FILLER_0_38_253
*1396 FILLER_0_38_27
*1397 FILLER_0_38_277
*1398 FILLER_0_38_281
*1399 FILLER_0_38_29
*1400 FILLER_0_38_291
*1401 FILLER_0_38_3
*1402 FILLER_0_38_302
*1403 FILLER_0_38_312
*1404 FILLER_0_38_337
*1405 FILLER_0_38_349
*1406 FILLER_0_38_41
*1407 FILLER_0_38_53
*1408 FILLER_0_38_57
*1409 FILLER_0_38_68
*1410 FILLER_0_38_74
*1411 FILLER_0_38_80
*1412 FILLER_0_38_88
*1413 FILLER_0_38_92
*1414 FILLER_0_38_98
*1415 FILLER_0_3_105
*1416 FILLER_0_3_111
*1417 FILLER_0_3_113
*1418 FILLER_0_3_125
*1419 FILLER_0_3_137
*1420 FILLER_0_3_149
*1421 FILLER_0_3_15
*1422 FILLER_0_3_161
*1423 FILLER_0_3_167
*1424 FILLER_0_3_169
*1425 FILLER_0_3_181
*1426 FILLER_0_3_193
*1427 FILLER_0_3_205
*1428 FILLER_0_3_217
*1429 FILLER_0_3_223
*1430 FILLER_0_3_225
*1431 FILLER_0_3_237
*1432 FILLER_0_3_249
*1433 FILLER_0_3_261
*1434 FILLER_0_3_27
*1435 FILLER_0_3_273
*1436 FILLER_0_3_279
*1437 FILLER_0_3_281
*1438 FILLER_0_3_293
*1439 FILLER_0_3_3
*1440 FILLER_0_3_305
*1441 FILLER_0_3_317
*1442 FILLER_0_3_329
*1443 FILLER_0_3_335
*1444 FILLER_0_3_337
*1445 FILLER_0_3_349
*1446 FILLER_0_3_39
*1447 FILLER_0_3_51
*1448 FILLER_0_3_55
*1449 FILLER_0_3_57
*1450 FILLER_0_3_69
*1451 FILLER_0_3_81
*1452 FILLER_0_3_93
*1453 FILLER_0_4_109
*1454 FILLER_0_4_121
*1455 FILLER_0_4_133
*1456 FILLER_0_4_139
*1457 FILLER_0_4_141
*1458 FILLER_0_4_15
*1459 FILLER_0_4_153
*1460 FILLER_0_4_165
*1461 FILLER_0_4_177
*1462 FILLER_0_4_189
*1463 FILLER_0_4_195
*1464 FILLER_0_4_197
*1465 FILLER_0_4_209
*1466 FILLER_0_4_221
*1467 FILLER_0_4_233
*1468 FILLER_0_4_245
*1469 FILLER_0_4_251
*1470 FILLER_0_4_253
*1471 FILLER_0_4_265
*1472 FILLER_0_4_27
*1473 FILLER_0_4_277
*1474 FILLER_0_4_289
*1475 FILLER_0_4_29
*1476 FILLER_0_4_3
*1477 FILLER_0_4_301
*1478 FILLER_0_4_307
*1479 FILLER_0_4_309
*1480 FILLER_0_4_321
*1481 FILLER_0_4_333
*1482 FILLER_0_4_345
*1483 FILLER_0_4_41
*1484 FILLER_0_4_53
*1485 FILLER_0_4_65
*1486 FILLER_0_4_77
*1487 FILLER_0_4_83
*1488 FILLER_0_4_85
*1489 FILLER_0_4_97
*1490 FILLER_0_5_105
*1491 FILLER_0_5_111
*1492 FILLER_0_5_113
*1493 FILLER_0_5_125
*1494 FILLER_0_5_137
*1495 FILLER_0_5_149
*1496 FILLER_0_5_15
*1497 FILLER_0_5_161
*1498 FILLER_0_5_167
*1499 FILLER_0_5_169
*1500 FILLER_0_5_181
*1501 FILLER_0_5_193
*1502 FILLER_0_5_205
*1503 FILLER_0_5_217
*1504 FILLER_0_5_223
*1505 FILLER_0_5_225
*1506 FILLER_0_5_237
*1507 FILLER_0_5_249
*1508 FILLER_0_5_261
*1509 FILLER_0_5_27
*1510 FILLER_0_5_273
*1511 FILLER_0_5_279
*1512 FILLER_0_5_281
*1513 FILLER_0_5_293
*1514 FILLER_0_5_3
*1515 FILLER_0_5_305
*1516 FILLER_0_5_317
*1517 FILLER_0_5_329
*1518 FILLER_0_5_335
*1519 FILLER_0_5_337
*1520 FILLER_0_5_349
*1521 FILLER_0_5_39
*1522 FILLER_0_5_51
*1523 FILLER_0_5_55
*1524 FILLER_0_5_57
*1525 FILLER_0_5_69
*1526 FILLER_0_5_81
*1527 FILLER_0_5_93
*1528 FILLER_0_6_109
*1529 FILLER_0_6_121
*1530 FILLER_0_6_133
*1531 FILLER_0_6_139
*1532 FILLER_0_6_141
*1533 FILLER_0_6_15
*1534 FILLER_0_6_153
*1535 FILLER_0_6_165