*SPEF "ieee 1481-1999"
*DESIGN "tt_um_tkmheart"
*DATE "11:11:11 Fri 11 11, 1111"
*VENDOR "OpenRCX"
*PROGRAM "Parallel Extraction"
*VERSION "1.0"
*DESIGN_FLOW "NAME_SCOPE LOCAL" "PIN_CAP NONE"
*DIVIDER /
*DELIMITER :
*BUS_DELIMITER []
*T_UNIT 1 NS
*C_UNIT 1 PF
*R_UNIT 1 OHM
*L_UNIT 1 HENRY

*NAME_MAP
*3 clk
*4 ena
*5 rst_n
*6 ui_in[0]
*7 ui_in[1]
*8 ui_in[2]
*9 ui_in[3]
*10 ui_in[4]
*11 ui_in[5]
*12 ui_in[6]
*13 ui_in[7]
*14 uio_in[0]
*15 uio_in[1]
*16 uio_in[2]
*17 uio_in[3]
*18 uio_in[4]
*19 uio_in[5]
*20 uio_in[6]
*21 uio_in[7]
*22 net17
*23 net18
*24 net19
*25 net20
*26 net21
*27 net22
*28 net23
*29 net24
*30 uio_out[0]
*31 net25
*32 net26
*33 net27
*34 net28
*35 net29
*36 net30
*37 net31
*38 uo_out[0]
*39 uo_out[1]
*40 uo_out[2]
*41 uo_out[3]
*42 uo_out[4]
*43 uo_out[5]
*44 uo_out[6]
*45 uo_out[7]
*46 _008_
*47 _009_
*48 _010_
*49 _011_
*50 _012_
*51 _013_
*52 _014_
*53 _015_
*54 _016_
*55 _017_
*56 _018_
*57 _019_
*58 _020_
*59 _021_
*60 _022_
*61 _023_
*62 _024_
*63 _025_
*64 _026_
*65 _027_
*66 _028_
*67 _029_
*68 _030_
*69 _031_
*70 _032_
*71 _033_
*72 _034_
*73 _035_
*74 _036_
*75 _037_
*76 _038_
*77 _039_
*78 _040_
*79 _041_
*80 _042_
*81 _043_
*82 _044_
*83 _045_
*84 _046_
*85 _047_
*86 _048_
*87 _049_
*88 _050_
*89 _051_
*90 _052_
*91 _053_
*92 _054_
*93 _055_
*94 _056_
*95 _057_
*96 _058_
*97 _059_
*98 _060_
*99 _061_
*100 _062_
*101 _063_
*102 _064_
*103 _065_
*104 _066_
*105 _067_
*106 _068_
*107 _069_
*108 _070_
*109 _071_
*110 _072_
*111 _073_
*112 _074_
*113 _075_
*114 _076_
*115 _077_
*116 _078_
*117 _079_
*118 _080_
*119 _081_
*120 _082_
*121 _083_
*122 _084_
*123 _085_
*124 _086_
*125 _087_
*126 _088_
*127 _089_
*128 _090_
*129 _091_
*130 _092_
*131 _093_
*132 _094_
*133 _095_
*134 _096_
*135 _097_
*136 _098_
*137 _099_
*138 _100_
*139 _101_
*140 _102_
*141 _103_
*142 _104_
*143 _105_
*144 _106_
*145 _107_
*146 _108_
*147 _109_
*148 _110_
*149 _111_
*150 _112_
*151 _113_
*152 _114_
*153 _115_
*154 _116_
*155 _117_
*156 _118_
*157 _119_
*158 _120_
*159 _121_
*160 _122_
*161 _123_
*162 _124_
*163 _125_
*164 _126_
*165 _127_
*166 _128_
*167 _129_
*168 _130_
*169 _131_
*170 clknet_0_clk
*171 clknet_1_0__leaf_clk
*172 clknet_1_1__leaf_clk
*173 net1
*174 net10
*175 net11
*176 net12
*177 net13
*178 net14
*179 net15
*180 net16
*181 net2
*182 net3
*183 net32
*184 net33
*185 net34
*186 net35
*187 net36
*188 net37
*189 net38
*190 net39
*191 net4
*192 net40
*193 net5
*194 net6
*195 net7
*196 net8
*197 net9
*198 th_flt\.a1\.buff\[0\]\[0\]
*199 th_flt\.a1\.buff\[0\]\[1\]
*200 th_flt\.a1\.buff\[0\]\[2\]
*201 th_flt\.a1\.buff\[0\]\[3\]
*202 th_flt\.a1\.buff\[0\]\[4\]
*203 th_flt\.a1\.buff\[0\]\[5\]
*204 th_flt\.a1\.buff\[0\]\[6\]
*205 th_flt\.a1\.buff\[0\]\[7\]
*206 th_flt\.a1\.buff\[1\]\[0\]
*207 th_flt\.a1\.buff\[1\]\[1\]
*208 th_flt\.a1\.buff\[1\]\[2\]
*209 th_flt\.a1\.buff\[1\]\[3\]
*210 th_flt\.a1\.buff\[1\]\[4\]
*211 th_flt\.a1\.buff\[1\]\[5\]
*212 th_flt\.a1\.buff\[1\]\[6\]
*213 th_flt\.a1\.buff\[1\]\[7\]
*214 th_flt\.a1\.buff\[2\]\[0\]
*215 th_flt\.a1\.buff\[2\]\[1\]
*216 th_flt\.a1\.buff\[2\]\[2\]
*217 th_flt\.a1\.buff\[2\]\[3\]
*218 th_flt\.a1\.buff\[2\]\[4\]
*219 th_flt\.a1\.buff\[2\]\[5\]
*220 th_flt\.a1\.buff\[2\]\[6\]
*221 th_flt\.a1\.buff\[2\]\[7\]
*222 th_flt\.a1\.clk
*223 th_flt\.a1\.peak
*224 th_flt\.inst\[0\]
*225 th_flt\.inst\[1\]
*226 th_flt\.inst\[2\]
*227 th_flt\.inst\[3\]
*228 th_flt\.inst\[4\]
*229 th_flt\.inst\[5\]
*230 th_flt\.inst\[6\]
*231 th_flt\.inst\[7\]
*232 th_flt\.th\[0\]
*233 th_flt\.th\[1\]
*234 th_flt\.th\[2\]
*235 th_flt\.th\[3\]
*236 th_flt\.th\[4\]
*237 th_flt\.th\[5\]
*238 th_flt\.th\[6\]
*239 th_flt\.th\[7\]
*240 FILLER_0_0_109
*241 FILLER_0_0_113
*242 FILLER_0_0_125
*243 FILLER_0_0_137
*244 FILLER_0_0_141
*245 FILLER_0_0_15
*246 FILLER_0_0_153
*247 FILLER_0_0_165
*248 FILLER_0_0_169
*249 FILLER_0_0_181
*250 FILLER_0_0_193
*251 FILLER_0_0_197
*252 FILLER_0_0_209
*253 FILLER_0_0_221
*254 FILLER_0_0_225
*255 FILLER_0_0_237
*256 FILLER_0_0_249
*257 FILLER_0_0_253
*258 FILLER_0_0_265
*259 FILLER_0_0_27
*260 FILLER_0_0_277
*261 FILLER_0_0_281
*262 FILLER_0_0_29
*263 FILLER_0_0_293
*264 FILLER_0_0_3
*265 FILLER_0_0_305
*266 FILLER_0_0_309
*267 FILLER_0_0_321
*268 FILLER_0_0_333
*269 FILLER_0_0_337
*270 FILLER_0_0_349
*271 FILLER_0_0_41
*272 FILLER_0_0_53
*273 FILLER_0_0_57
*274 FILLER_0_0_69
*275 FILLER_0_0_81
*276 FILLER_0_0_85
*277 FILLER_0_0_97
*278 FILLER_0_10_109
*279 FILLER_0_10_121
*280 FILLER_0_10_133
*281 FILLER_0_10_139
*282 FILLER_0_10_141
*283 FILLER_0_10_15
*284 FILLER_0_10_153
*285 FILLER_0_10_165
*286 FILLER_0_10_177
*287 FILLER_0_10_189
*288 FILLER_0_10_195
*289 FILLER_0_10_197
*290 FILLER_0_10_209
*291 FILLER_0_10_221
*292 FILLER_0_10_233
*293 FILLER_0_10_245
*294 FILLER_0_10_251
*295 FILLER_0_10_253
*296 FILLER_0_10_265
*297 FILLER_0_10_27
*298 FILLER_0_10_277
*299 FILLER_0_10_289
*300 FILLER_0_10_29
*301 FILLER_0_10_3
*302 FILLER_0_10_301
*303 FILLER_0_10_307
*304 FILLER_0_10_309
*305 FILLER_0_10_321
*306 FILLER_0_10_333
*307 FILLER_0_10_345
*308 FILLER_0_10_41
*309 FILLER_0_10_53
*310 FILLER_0_10_65
*311 FILLER_0_10_77
*312 FILLER_0_10_83
*313 FILLER_0_10_85
*314 FILLER_0_10_97
*315 FILLER_0_11_105
*316 FILLER_0_11_111
*317 FILLER_0_11_113
*318 FILLER_0_11_125
*319 FILLER_0_11_137
*320 FILLER_0_11_149
*321 FILLER_0_11_15
*322 FILLER_0_11_161
*323 FILLER_0_11_167
*324 FILLER_0_11_169
*325 FILLER_0_11_181
*326 FILLER_0_11_193
*327 FILLER_0_11_205
*328 FILLER_0_11_217
*329 FILLER_0_11_223
*330 FILLER_0_11_225
*331 FILLER_0_11_237
*332 FILLER_0_11_249
*333 FILLER_0_11_261
*334 FILLER_0_11_27
*335 FILLER_0_11_273
*336 FILLER_0_11_279
*337 FILLER_0_11_281
*338 FILLER_0_11_293
*339 FILLER_0_11_3
*340 FILLER_0_11_305
*341 FILLER_0_11_317
*342 FILLER_0_11_329
*343 FILLER_0_11_335
*344 FILLER_0_11_337
*345 FILLER_0_11_349
*346 FILLER_0_11_39
*347 FILLER_0_11_51
*348 FILLER_0_11_55
*349 FILLER_0_11_57
*350 FILLER_0_11_69
*351 FILLER_0_11_81
*352 FILLER_0_11_93
*353 FILLER_0_12_109
*354 FILLER_0_12_121
*355 FILLER_0_12_133
*356 FILLER_0_12_139
*357 FILLER_0_12_141
*358 FILLER_0_12_15
*359 FILLER_0_12_153
*360 FILLER_0_12_165
*361 FILLER_0_12_177
*362 FILLER_0_12_189
*363 FILLER_0_12_195
*364 FILLER_0_12_197
*365 FILLER_0_12_209
*366 FILLER_0_12_221
*367 FILLER_0_12_233
*368 FILLER_0_12_245
*369 FILLER_0_12_251
*370 FILLER_0_12_253
*371 FILLER_0_12_265
*372 FILLER_0_12_27
*373 FILLER_0_12_277
*374 FILLER_0_12_289
*375 FILLER_0_12_29
*376 FILLER_0_12_3
*377 FILLER_0_12_301
*378 FILLER_0_12_307
*379 FILLER_0_12_309
*380 FILLER_0_12_321
*381 FILLER_0_12_333
*382 FILLER_0_12_345
*383 FILLER_0_12_41
*384 FILLER_0_12_53
*385 FILLER_0_12_65
*386 FILLER_0_12_77
*387 FILLER_0_12_83
*388 FILLER_0_12_85
*389 FILLER_0_12_97
*390 FILLER_0_13_105
*391 FILLER_0_13_111
*392 FILLER_0_13_113
*393 FILLER_0_13_125
*394 FILLER_0_13_137
*395 FILLER_0_13_149
*396 FILLER_0_13_15
*397 FILLER_0_13_161
*398 FILLER_0_13_167
*399 FILLER_0_13_169
*400 FILLER_0_13_181
*401 FILLER_0_13_193
*402 FILLER_0_13_205
*403 FILLER_0_13_217
*404 FILLER_0_13_223
*405 FILLER_0_13_225
*406 FILLER_0_13_237
*407 FILLER_0_13_249
*408 FILLER_0_13_261
*409 FILLER_0_13_27
*410 FILLER_0_13_273
*411 FILLER_0_13_279
*412 FILLER_0_13_281
*413 FILLER_0_13_293
*414 FILLER_0_13_3
*415 FILLER_0_13_305
*416 FILLER_0_13_317
*417 FILLER_0_13_329
*418 FILLER_0_13_335
*419 FILLER_0_13_337
*420 FILLER_0_13_349
*421 FILLER_0_13_39
*422 FILLER_0_13_51
*423 FILLER_0_13_55
*424 FILLER_0_13_57
*425 FILLER_0_13_69
*426 FILLER_0_13_81
*427 FILLER_0_13_93
*428 FILLER_0_14_109
*429 FILLER_0_14_121
*430 FILLER_0_14_133
*431 FILLER_0_14_139
*432 FILLER_0_14_141
*433 FILLER_0_14_15
*434 FILLER_0_14_153
*435 FILLER_0_14_165
*436 FILLER_0_14_177
*437 FILLER_0_14_189
*438 FILLER_0_14_195
*439 FILLER_0_14_197
*440 FILLER_0_14_209
*441 FILLER_0_14_221
*442 FILLER_0_14_233
*443 FILLER_0_14_245
*444 FILLER_0_14_251
*445 FILLER_0_14_253
*446 FILLER_0_14_265
*447 FILLER_0_14_27
*448 FILLER_0_14_277
*449 FILLER_0_14_289
*450 FILLER_0_14_29
*451 FILLER_0_14_3
*452 FILLER_0_14_301
*453 FILLER_0_14_307
*454 FILLER_0_14_309
*455 FILLER_0_14_321
*456 FILLER_0_14_333
*457 FILLER_0_14_345
*458 FILLER_0_14_41
*459 FILLER_0_14_53
*460 FILLER_0_14_65
*461 FILLER_0_14_77
*462 FILLER_0_14_83
*463 FILLER_0_14_85
*464 FILLER_0_14_97
*465 FILLER_0_15_105
*466 FILLER_0_15_111
*467 FILLER_0_15_113
*468 FILLER_0_15_125
*469 FILLER_0_15_137
*470 FILLER_0_15_149
*471 FILLER_0_15_15
*472 FILLER_0_15_161
*473 FILLER_0_15_167
*474 FILLER_0_15_169
*475 FILLER_0_15_181
*476 FILLER_0_15_193
*477 FILLER_0_15_205
*478 FILLER_0_15_217
*479 FILLER_0_15_223
*480 FILLER_0_15_225
*481 FILLER_0_15_237
*482 FILLER_0_15_249
*483 FILLER_0_15_261
*484 FILLER_0_15_27
*485 FILLER_0_15_273
*486 FILLER_0_15_279
*487 FILLER_0_15_281
*488 FILLER_0_15_293
*489 FILLER_0_15_3
*490 FILLER_0_15_305
*491 FILLER_0_15_317
*492 FILLER_0_15_329
*493 FILLER_0_15_335
*494 FILLER_0_15_337
*495 FILLER_0_15_349
*496 FILLER_0_15_39
*497 FILLER_0_15_51
*498 FILLER_0_15_55
*499 FILLER_0_15_57
*500 FILLER_0_15_69
*501 FILLER_0_15_81
*502 FILLER_0_15_93
*503 FILLER_0_16_109
*504 FILLER_0_16_121
*505 FILLER_0_16_133
*506 FILLER_0_16_139
*507 FILLER_0_16_141
*508 FILLER_0_16_15
*509 FILLER_0_16_153
*510 FILLER_0_16_165
*511 FILLER_0_16_177
*512 FILLER_0_16_189
*513 FILLER_0_16_195
*514 FILLER_0_16_197
*515 FILLER_0_16_209
*516 FILLER_0_16_221
*517 FILLER_0_16_233
*518 FILLER_0_16_245
*519 FILLER_0_16_251
*520 FILLER_0_16_253
*521 FILLER_0_16_265
*522 FILLER_0_16_27
*523 FILLER_0_16_277
*524 FILLER_0_16_289
*525 FILLER_0_16_29
*526 FILLER_0_16_3
*527 FILLER_0_16_301
*528 FILLER_0_16_307
*529 FILLER_0_16_309
*530 FILLER_0_16_321
*531 FILLER_0_16_333
*532 FILLER_0_16_345
*533 FILLER_0_16_41
*534 FILLER_0_16_53
*535 FILLER_0_16_65
*536 FILLER_0_16_77
*537 FILLER_0_16_83
*538 FILLER_0_16_85
*539 FILLER_0_16_97
*540 FILLER_0_17_105
*541 FILLER_0_17_111
*542 FILLER_0_17_113
*543 FILLER_0_17_125
*544 FILLER_0_17_137
*545 FILLER_0_17_149
*546 FILLER_0_17_15
*547 FILLER_0_17_161
*548 FILLER_0_17_167
*549 FILLER_0_17_169
*550 FILLER_0_17_181
*551 FILLER_0_17_193
*552 FILLER_0_17_205
*553 FILLER_0_17_217
*554 FILLER_0_17_223
*555 FILLER_0_17_225
*556 FILLER_0_17_237
*557 FILLER_0_17_249
*558 FILLER_0_17_261
*559 FILLER_0_17_27
*560 FILLER_0_17_273
*561 FILLER_0_17_279
*562 FILLER_0_17_281
*563 FILLER_0_17_293
*564 FILLER_0_17_3
*565 FILLER_0_17_305
*566 FILLER_0_17_317
*567 FILLER_0_17_329
*568 FILLER_0_17_335
*569 FILLER_0_17_337
*570 FILLER_0_17_349
*571 FILLER_0_17_39
*572 FILLER_0_17_51
*573 FILLER_0_17_55
*574 FILLER_0_17_57
*575 FILLER_0_17_69
*576 FILLER_0_17_81
*577 FILLER_0_17_93
*578 FILLER_0_18_109
*579 FILLER_0_18_121
*580 FILLER_0_18_133
*581 FILLER_0_18_139
*582 FILLER_0_18_141
*583 FILLER_0_18_15
*584 FILLER_0_18_153
*585 FILLER_0_18_165
*586 FILLER_0_18_177
*587 FILLER_0_18_189
*588 FILLER_0_18_195
*589 FILLER_0_18_197
*590 FILLER_0_18_209
*591 FILLER_0_18_221
*592 FILLER_0_18_233
*593 FILLER_0_18_245
*594 FILLER_0_18_251
*595 FILLER_0_18_253
*596 FILLER_0_18_265
*597 FILLER_0_18_27
*598 FILLER_0_18_277
*599 FILLER_0_18_289
*600 FILLER_0_18_29
*601 FILLER_0_18_3
*602 FILLER_0_18_301
*603 FILLER_0_18_307
*604 FILLER_0_18_309
*605 FILLER_0_18_321
*606 FILLER_0_18_333
*607 FILLER_0_18_345
*608 FILLER_0_18_41
*609 FILLER_0_18_53
*610 FILLER_0_18_65
*611 FILLER_0_18_77
*612 FILLER_0_18_83
*613 FILLER_0_18_85
*614 FILLER_0_18_97
*615 FILLER_0_19_105
*616 FILLER_0_19_111
*617 FILLER_0_19_113
*618 FILLER_0_19_125
*619 FILLER_0_19_137
*620 FILLER_0_19_149
*621 FILLER_0_19_15
*622 FILLER_0_19_161
*623 FILLER_0_19_167
*624 FILLER_0_19_169
*625 FILLER_0_19_181
*626 FILLER_0_19_193
*627 FILLER_0_19_205
*628 FILLER_0_19_217
*629 FILLER_0_19_223
*630 FILLER_0_19_225
*631 FILLER_0_19_237
*632 FILLER_0_19_249
*633 FILLER_0_19_261
*634 FILLER_0_19_27
*635 FILLER_0_19_273
*636 FILLER_0_19_279
*637 FILLER_0_19_281
*638 FILLER_0_19_293
*639 FILLER_0_19_3
*640 FILLER_0_19_305
*641 FILLER_0_19_317
*642 FILLER_0_19_329
*643 FILLER_0_19_335
*644 FILLER_0_19_337
*645 FILLER_0_19_349
*646 FILLER_0_19_39
*647 FILLER_0_19_51
*648 FILLER_0_19_55
*649 FILLER_0_19_57
*650 FILLER_0_19_69
*651 FILLER_0_19_81
*652 FILLER_0_19_93
*653 FILLER_0_1_105
*654 FILLER_0_1_111
*655 FILLER_0_1_113
*656 FILLER_0_1_125
*657 FILLER_0_1_137
*658 FILLER_0_1_149
*659 FILLER_0_1_15
*660 FILLER_0_1_161
*661 FILLER_0_1_167
*662 FILLER_0_1_169
*663 FILLER_0_1_181
*664 FILLER_0_1_193
*665 FILLER_0_1_205
*666 FILLER_0_1_217
*667 FILLER_0_1_223
*668 FILLER_0_1_225
*669 FILLER_0_1_237
*670 FILLER_0_1_249
*671 FILLER_0_1_261
*672 FILLER_0_1_27
*673 FILLER_0_1_273
*674 FILLER_0_1_279
*675 FILLER_0_1_281
*676 FILLER_0_1_293
*677 FILLER_0_1_3
*678 FILLER_0_1_305
*679 FILLER_0_1_317
*680 FILLER_0_1_329
*681 FILLER_0_1_335
*682 FILLER_0_1_337
*683 FILLER_0_1_349
*684 FILLER_0_1_39
*685 FILLER_0_1_51
*686 FILLER_0_1_55
*687 FILLER_0_1_57
*688 FILLER_0_1_69
*689 FILLER_0_1_81
*690 FILLER_0_1_93
*691 FILLER_0_20_109
*692 FILLER_0_20_121
*693 FILLER_0_20_133
*694 FILLER_0_20_139
*695 FILLER_0_20_141
*696 FILLER_0_20_15
*697 FILLER_0_20_153
*698 FILLER_0_20_165
*699 FILLER_0_20_177
*700 FILLER_0_20_189
*701 FILLER_0_20_195
*702 FILLER_0_20_197
*703 FILLER_0_20_209
*704 FILLER_0_20_221
*705 FILLER_0_20_233
*706 FILLER_0_20_245
*707 FILLER_0_20_251
*708 FILLER_0_20_253
*709 FILLER_0_20_265
*710 FILLER_0_20_27
*711 FILLER_0_20_277
*712 FILLER_0_20_289
*713 FILLER_0_20_29
*714 FILLER_0_20_3
*715 FILLER_0_20_301
*716 FILLER_0_20_307
*717 FILLER_0_20_309
*718 FILLER_0_20_321
*719 FILLER_0_20_333
*720 FILLER_0_20_345
*721 FILLER_0_20_41
*722 FILLER_0_20_53
*723 FILLER_0_20_65
*724 FILLER_0_20_77
*725 FILLER_0_20_83
*726 FILLER_0_20_85
*727 FILLER_0_20_97
*728 FILLER_0_21_105
*729 FILLER_0_21_111
*730 FILLER_0_21_113
*731 FILLER_0_21_125
*732 FILLER_0_21_137
*733 FILLER_0_21_149
*734 FILLER_0_21_15
*735 FILLER_0_21_161
*736 FILLER_0_21_167
*737 FILLER_0_21_169
*738 FILLER_0_21_181
*739 FILLER_0_21_193
*740 FILLER_0_21_205
*741 FILLER_0_21_217
*742 FILLER_0_21_223
*743 FILLER_0_21_225
*744 FILLER_0_21_237
*745 FILLER_0_21_249
*746 FILLER_0_21_261
*747 FILLER_0_21_27
*748 FILLER_0_21_273
*749 FILLER_0_21_279
*750 FILLER_0_21_281
*751 FILLER_0_21_293
*752 FILLER_0_21_3
*753 FILLER_0_21_305
*754 FILLER_0_21_317
*755 FILLER_0_21_329
*756 FILLER_0_21_335
*757 FILLER_0_21_337
*758 FILLER_0_21_349
*759 FILLER_0_21_39
*760 FILLER_0_21_51
*761 FILLER_0_21_55
*762 FILLER_0_21_57
*763 FILLER_0_21_69
*764 FILLER_0_21_81
*765 FILLER_0_21_93
*766 FILLER_0_22_109
*767 FILLER_0_22_121
*768 FILLER_0_22_133
*769 FILLER_0_22_139
*770 FILLER_0_22_141
*771 FILLER_0_22_15
*772 FILLER_0_22_153
*773 FILLER_0_22_165
*774 FILLER_0_22_177
*775 FILLER_0_22_189
*776 FILLER_0_22_195
*777 FILLER_0_22_197
*778 FILLER_0_22_209
*779 FILLER_0_22_221
*780 FILLER_0_22_233
*781 FILLER_0_22_245
*782 FILLER_0_22_251
*783 FILLER_0_22_253
*784 FILLER_0_22_265
*785 FILLER_0_22_27
*786 FILLER_0_22_277
*787 FILLER_0_22_289
*788 FILLER_0_22_29
*789 FILLER_0_22_3
*790 FILLER_0_22_301
*791 FILLER_0_22_307
*792 FILLER_0_22_309
*793 FILLER_0_22_321
*794 FILLER_0_22_333
*795 FILLER_0_22_345
*796 FILLER_0_22_41
*797 FILLER_0_22_53
*798 FILLER_0_22_65
*799 FILLER_0_22_77
*800 FILLER_0_22_83
*801 FILLER_0_22_85
*802 FILLER_0_22_97
*803 FILLER_0_23_105
*804 FILLER_0_23_111
*805 FILLER_0_23_113
*806 FILLER_0_23_125
*807 FILLER_0_23_137
*808 FILLER_0_23_149
*809 FILLER_0_23_15
*810 FILLER_0_23_161
*811 FILLER_0_23_167
*812 FILLER_0_23_169
*813 FILLER_0_23_181
*814 FILLER_0_23_193
*815 FILLER_0_23_205
*816 FILLER_0_23_217
*817 FILLER_0_23_223
*818 FILLER_0_23_225
*819 FILLER_0_23_237
*820 FILLER_0_23_249
*821 FILLER_0_23_261
*822 FILLER_0_23_27
*823 FILLER_0_23_273
*824 FILLER_0_23_279
*825 FILLER_0_23_281
*826 FILLER_0_23_293
*827 FILLER_0_23_3
*828 FILLER_0_23_305
*829 FILLER_0_23_317
*830 FILLER_0_23_329
*831 FILLER_0_23_335
*832 FILLER_0_23_337
*833 FILLER_0_23_349
*834 FILLER_0_23_39
*835 FILLER_0_23_51
*836 FILLER_0_23_55
*837 FILLER_0_23_57
*838 FILLER_0_23_69
*839 FILLER_0_23_81
*840 FILLER_0_23_93
*841 FILLER_0_24_109
*842 FILLER_0_24_121
*843 FILLER_0_24_133
*844 FILLER_0_24_139
*845 FILLER_0_24_141
*846 FILLER_0_24_15
*847 FILLER_0_24_153
*848 FILLER_0_24_165
*849 FILLER_0_24_177
*850 FILLER_0_24_189
*851 FILLER_0_24_195
*852 FILLER_0_24_197
*853 FILLER_0_24_209
*854 FILLER_0_24_221
*855 FILLER_0_24_233
*856 FILLER_0_24_245
*857 FILLER_0_24_251
*858 FILLER_0_24_253
*859 FILLER_0_24_265
*860 FILLER_0_24_27
*861 FILLER_0_24_277
*862 FILLER_0_24_289
*863 FILLER_0_24_29
*864 FILLER_0_24_3
*865 FILLER_0_24_301
*866 FILLER_0_24_307
*867 FILLER_0_24_309
*868 FILLER_0_24_321
*869 FILLER_0_24_333
*870 FILLER_0_24_345
*871 FILLER_0_24_41
*872 FILLER_0_24_53
*873 FILLER_0_24_65
*874 FILLER_0_24_77
*875 FILLER_0_24_83
*876 FILLER_0_24_85
*877 FILLER_0_24_97
*878 FILLER_0_25_105
*879 FILLER_0_25_111
*880 FILLER_0_25_113
*881 FILLER_0_25_125
*882 FILLER_0_25_131
*883 FILLER_0_25_15
*884 FILLER_0_25_152
*885 FILLER_0_25_164
*886 FILLER_0_25_169
*887 FILLER_0_25_181
*888 FILLER_0_25_193
*889 FILLER_0_25_205
*890 FILLER_0_25_217
*891 FILLER_0_25_223
*892 FILLER_0_25_225
*893 FILLER_0_25_237
*894 FILLER_0_25_249
*895 FILLER_0_25_261
*896 FILLER_0_25_27
*897 FILLER_0_25_273
*898 FILLER_0_25_279
*899 FILLER_0_25_281
*900 FILLER_0_25_293
*901 FILLER_0_25_3
*902 FILLER_0_25_305
*903 FILLER_0_25_317
*904 FILLER_0_25_329
*905 FILLER_0_25_335
*906 FILLER_0_25_337
*907 FILLER_0_25_349
*908 FILLER_0_25_39
*909 FILLER_0_25_51
*910 FILLER_0_25_55
*911 FILLER_0_25_57
*912 FILLER_0_25_69
*913 FILLER_0_25_81
*914 FILLER_0_25_93
*915 FILLER_0_26_103
*916 FILLER_0_26_124
*917 FILLER_0_26_136
*918 FILLER_0_26_141
*919 FILLER_0_26_149
*920 FILLER_0_26_15
*921 FILLER_0_26_155
*922 FILLER_0_26_178
*923 FILLER_0_26_190
*924 FILLER_0_26_197
*925 FILLER_0_26_209
*926 FILLER_0_26_221
*927 FILLER_0_26_233
*928 FILLER_0_26_245
*929 FILLER_0_26_251
*930 FILLER_0_26_253
*931 FILLER_0_26_265
*932 FILLER_0_26_27
*933 FILLER_0_26_277
*934 FILLER_0_26_289
*935 FILLER_0_26_29
*936 FILLER_0_26_3
*937 FILLER_0_26_301
*938 FILLER_0_26_307
*939 FILLER_0_26_309
*940 FILLER_0_26_321
*941 FILLER_0_26_333
*942 FILLER_0_26_345
*943 FILLER_0_26_41
*944 FILLER_0_26_53
*945 FILLER_0_26_65
*946 FILLER_0_26_77
*947 FILLER_0_26_83
*948 FILLER_0_26_85
*949 FILLER_0_26_97
*950 FILLER_0_27_105
*951 FILLER_0_27_111
*952 FILLER_0_27_113
*953 FILLER_0_27_15
*954 FILLER_0_27_167
*955 FILLER_0_27_193
*956 FILLER_0_27_205
*957 FILLER_0_27_217
*958 FILLER_0_27_223
*959 FILLER_0_27_225
*960 FILLER_0_27_237
*961 FILLER_0_27_249
*962 FILLER_0_27_261
*963 FILLER_0_27_27
*964 FILLER_0_27_273
*965 FILLER_0_27_279
*966 FILLER_0_27_281
*967 FILLER_0_27_293
*968 FILLER_0_27_3
*969 FILLER_0_27_305
*970 FILLER_0_27_317
*971 FILLER_0_27_329
*972 FILLER_0_27_335
*973 FILLER_0_27_337
*974 FILLER_0_27_349
*975 FILLER_0_27_39
*976 FILLER_0_27_51
*977 FILLER_0_27_55
*978 FILLER_0_27_57
*979 FILLER_0_27_69
*980 FILLER_0_27_81
*981 FILLER_0_27_93
*982 FILLER_0_28_114
*983 FILLER_0_28_122
*984 FILLER_0_28_138
*985 FILLER_0_28_149
*986 FILLER_0_28_15
*987 FILLER_0_28_161
*988 FILLER_0_28_201
*989 FILLER_0_28_213
*990 FILLER_0_28_225
*991 FILLER_0_28_248
*992 FILLER_0_28_253
*993 FILLER_0_28_265
*994 FILLER_0_28_27
*995 FILLER_0_28_286
*996 FILLER_0_28_29
*997 FILLER_0_28_298
*998 FILLER_0_28_3
*999 FILLER_0_28_306
*1000 FILLER_0_28_309
*1001 FILLER_0_28_321
*1002 FILLER_0_28_333
*1003 FILLER_0_28_345
*1004 FILLER_0_28_41
*1005 FILLER_0_28_53
*1006 FILLER_0_28_65
*1007 FILLER_0_28_77
*1008 FILLER_0_28_83
*1009 FILLER_0_28_85
*1010 FILLER_0_29_111
*1011 FILLER_0_29_113
*1012 FILLER_0_29_125
*1013 FILLER_0_29_133
*1014 FILLER_0_29_146
*1015 FILLER_0_29_15
*1016 FILLER_0_29_158
*1017 FILLER_0_29_175
*1018 FILLER_0_29_203
*1019 FILLER_0_29_215
*1020 FILLER_0_29_223
*1021 FILLER_0_29_225
*1022 FILLER_0_29_252
*1023 FILLER_0_29_256
*1024 FILLER_0_29_27
*1025 FILLER_0_29_284
*1026 FILLER_0_29_296
*1027 FILLER_0_29_3
*1028 FILLER_0_29_305
*1029 FILLER_0_29_317
*1030 FILLER_0_29_329
*1031 FILLER_0_29_335
*1032 FILLER_0_29_337
*1033 FILLER_0_29_349
*1034 FILLER_0_29_39
*1035 FILLER_0_29_51
*1036 FILLER_0_29_55
*1037 FILLER_0_29_57
*1038 FILLER_0_29_65
*1039 FILLER_0_29_87
*1040 FILLER_0_29_99
*1041 FILLER_0_2_109
*1042 FILLER_0_2_121
*1043 FILLER_0_2_133
*1044 FILLER_0_2_139
*1045 FILLER_0_2_141
*1046 FILLER_0_2_15
*1047 FILLER_0_2_153
*1048 FILLER_0_2_165
*1049 FILLER_0_2_177
*1050 FILLER_0_2_189
*1051 FILLER_0_2_195
*1052 FILLER_0_2_197
*1053 FILLER_0_2_209
*1054 FILLER_0_2_221
*1055 FILLER_0_2_233
*1056 FILLER_0_2_245
*1057 FILLER_0_2_251
*1058 FILLER_0_2_253
*1059 FILLER_0_2_265
*1060 FILLER_0_2_27
*1061 FILLER_0_2_277
*1062 FILLER_0_2_289
*1063 FILLER_0_2_29
*1064 FILLER_0_2_3
*1065 FILLER_0_2_301
*1066 FILLER_0_2_307
*1067 FILLER_0_2_309
*1068 FILLER_0_2_321
*1069 FILLER_0_2_333
*1070 FILLER_0_2_345
*1071 FILLER_0_2_41
*1072 FILLER_0_2_53
*1073 FILLER_0_2_65
*1074 FILLER_0_2_77
*1075 FILLER_0_2_83
*1076 FILLER_0_2_85
*1077 FILLER_0_2_97
*1078 FILLER_0_30_107
*1079 FILLER_0_30_119
*1080 FILLER_0_30_131
*1081 FILLER_0_30_136
*1082 FILLER_0_30_149
*1083 FILLER_0_30_15
*1084 FILLER_0_30_155
*1085 FILLER_0_30_166
*1086 FILLER_0_30_192
*1087 FILLER_0_30_197
*1088 FILLER_0_30_205
*1089 FILLER_0_30_249
*1090 FILLER_0_30_253
*1091 FILLER_0_30_261
*1092 FILLER_0_30_27
*1093 FILLER_0_30_288
*1094 FILLER_0_30_29
*1095 FILLER_0_30_296
*1096 FILLER_0_30_3
*1097 FILLER_0_30_306
*1098 FILLER_0_30_329
*1099 FILLER_0_30_341
*1100 FILLER_0_30_349
*1101 FILLER_0_30_41
*1102 FILLER_0_30_53
*1103 FILLER_0_30_83
*1104 FILLER_0_30_96
*1105 FILLER_0_31_104
*1106 FILLER_0_31_109
*1107 FILLER_0_31_121
*1108 FILLER_0_31_15
*1109 FILLER_0_31_152
*1110 FILLER_0_31_164
*1111 FILLER_0_31_169
*1112 FILLER_0_31_175
*1113 FILLER_0_31_196
*1114 FILLER_0_31_208
*1115 FILLER_0_31_255
*1116 FILLER_0_31_27
*1117 FILLER_0_31_276
*1118 FILLER_0_31_297
*1119 FILLER_0_31_3
*1120 FILLER_0_31_322
*1121 FILLER_0_31_334
*1122 FILLER_0_31_337
*1123 FILLER_0_31_349
*1124 FILLER_0_31_39
*1125 FILLER_0_31_51
*1126 FILLER_0_31_55
*1127 FILLER_0_31_77
*1128 FILLER_0_31_82
*1129 FILLER_0_31_95
*1130 FILLER_0_32_104
*1131 FILLER_0_32_114
*1132 FILLER_0_32_124
*1133 FILLER_0_32_132
*1134 FILLER_0_32_15
*1135 FILLER_0_32_161
*1136 FILLER_0_32_173
*1137 FILLER_0_32_185
*1138 FILLER_0_32_193
*1139 FILLER_0_32_197
*1140 FILLER_0_32_209
*1141 FILLER_0_32_221
*1142 FILLER_0_32_250
*1143 FILLER_0_32_260
*1144 FILLER_0_32_27
*1145 FILLER_0_32_272
*1146 FILLER_0_32_283
*1147 FILLER_0_32_29
*1148 FILLER_0_32_292
*1149 FILLER_0_32_3
*1150 FILLER_0_32_309
*1151 FILLER_0_32_321
*1152 FILLER_0_32_333
*1153 FILLER_0_32_345
*1154 FILLER_0_32_41
*1155 FILLER_0_32_53
*1156 FILLER_0_32_57
*1157 FILLER_0_32_78
*1158 FILLER_0_32_85
*1159 FILLER_0_32_94
*1160 FILLER_0_33_111
*1161 FILLER_0_33_119
*1162 FILLER_0_33_131
*1163 FILLER_0_33_143
*1164 FILLER_0_33_15
*1165 FILLER_0_33_155
*1166 FILLER_0_33_167
*1167 FILLER_0_33_194
*1168 FILLER_0_33_203
*1169 FILLER_0_33_210
*1170 FILLER_0_33_220
*1171 FILLER_0_33_231
*1172 FILLER_0_33_240
*1173 FILLER_0_33_268
*1174 FILLER_0_33_27
*1175 FILLER_0_33_281
*1176 FILLER_0_33_3
*1177 FILLER_0_33_302
*1178 FILLER_0_33_314
*1179 FILLER_0_33_326
*1180 FILLER_0_33_334
*1181 FILLER_0_33_337
*1182 FILLER_0_33_349
*1183 FILLER_0_33_39
*1184 FILLER_0_33_51
*1185 FILLER_0_33_55
*1186 FILLER_0_33_81
*1187 FILLER_0_33_89
*1188 FILLER_0_33_97
*1189 FILLER_0_34_120
*1190 FILLER_0_34_132
*1191 FILLER_0_34_15
*1192 FILLER_0_34_161
*1193 FILLER_0_34_197
*1194 FILLER_0_34_248
*1195 FILLER_0_34_27
*1196 FILLER_0_34_273
*1197 FILLER_0_34_279
*1198 FILLER_0_34_283
*1199 FILLER_0_34_287
*1200 FILLER_0_34_29
*1201 FILLER_0_34_293
*1202 FILLER_0_34_3
*1203 FILLER_0_34_305
*1204 FILLER_0_34_309
*1205 FILLER_0_34_333
*1206 FILLER_0_34_345
*1207 FILLER_0_34_41
*1208 FILLER_0_34_53
*1209 FILLER_0_34_74
*1210 FILLER_0_34_82
*1211 FILLER_0_34_85
*1212 FILLER_0_34_97
*1213 FILLER_0_35_102
*1214 FILLER_0_35_106
*1215 FILLER_0_35_110
*1216 FILLER_0_35_113
*1217 FILLER_0_35_125
*1218 FILLER_0_35_137
*1219 FILLER_0_35_149
*1220 FILLER_0_35_15
*1221 FILLER_0_35_161
*1222 FILLER_0_35_167
*1223 FILLER_0_35_169
*1224 FILLER_0_35_195
*1225 FILLER_0_35_203
*1226 FILLER_0_35_211
*1227 FILLER_0_35_222
*1228 FILLER_0_35_225
*1229 FILLER_0_35_249
*1230 FILLER_0_35_255
*1231 FILLER_0_35_268
*1232 FILLER_0_35_27
*1233 FILLER_0_35_278
*1234 FILLER_0_35_3
*1235 FILLER_0_35_302
*1236 FILLER_0_35_332
*1237 FILLER_0_35_337
*1238 FILLER_0_35_349
*1239 FILLER_0_35_39
*1240 FILLER_0_35_51
*1241 FILLER_0_35_55
*1242 FILLER_0_35_57
*1243 FILLER_0_35_69
*1244 FILLER_0_35_77
*1245 FILLER_0_36_119
*1246 FILLER_0_36_141
*1247 FILLER_0_36_15
*1248 FILLER_0_36_153
*1249 FILLER_0_36_192
*1250 FILLER_0_36_203
*1251 FILLER_0_36_235
*1252 FILLER_0_36_242
*1253 FILLER_0_36_262
*1254 FILLER_0_36_266
*1255 FILLER_0_36_27
*1256 FILLER_0_36_29
*1257 FILLER_0_36_3
*1258 FILLER_0_36_332
*1259 FILLER_0_36_344
*1260 FILLER_0_36_350
*1261 FILLER_0_36_41
*1262 FILLER_0_36_53
*1263 FILLER_0_36_65
*1264 FILLER_0_36_77
*1265 FILLER_0_36_83
*1266 FILLER_0_36_85
*1267 FILLER_0_36_97
*1268 FILLER_0_37_119
*1269 FILLER_0_37_127
*1270 FILLER_0_37_15
*1271 FILLER_0_37_152
*1272 FILLER_0_37_164
*1273 FILLER_0_37_169
*1274 FILLER_0_37_198
*1275 FILLER_0_37_204
*1276 FILLER_0_37_231
*1277 FILLER_0_37_27
*1278 FILLER_0_37_273
*1279 FILLER_0_37_281
*1280 FILLER_0_37_299
*1281 FILLER_0_37_3
*1282 FILLER_0_37_330
*1283 FILLER_0_37_337
*1284 FILLER_0_37_349
*1285 FILLER_0_37_39
*1286 FILLER_0_37_51
*1287 FILLER_0_37_55
*1288 FILLER_0_37_57
*1289 FILLER_0_37_69
*1290 FILLER_0_37_91
*1291 FILLER_0_38_104
*1292 FILLER_0_38_110
*1293 FILLER_0_38_116
*1294 FILLER_0_38_122
*1295 FILLER_0_38_128
*1296 FILLER_0_38_134
*1297 FILLER_0_38_141
*1298 FILLER_0_38_146
*1299 FILLER_0_38_15
*1300 FILLER_0_38_152
*1301 FILLER_0_38_160
*1302 FILLER_0_38_197
*1303 FILLER_0_38_205
*1304 FILLER_0_38_209
*1305 FILLER_0_38_221
*1306 FILLER_0_38_225
*1307 FILLER_0_38_237
*1308 FILLER_0_38_253
*1309 FILLER_0_38_259
*1310 FILLER_0_38_266
*1311 FILLER_0_38_27
*1312 FILLER_0_38_279
*1313 FILLER_0_38_29
*1314 FILLER_0_38_293
*1315 FILLER_0_38_3
*1316 FILLER_0_38_307
*1317 FILLER_0_38_315
*1318 FILLER_0_38_326
*1319 FILLER_0_38_334
*1320 FILLER_0_38_337
*1321 FILLER_0_38_349
*1322 FILLER_0_38_41
*1323 FILLER_0_38_53
*1324 FILLER_0_38_57
*1325 FILLER_0_38_68
*1326 FILLER_0_38_74
*1327 FILLER_0_38_80
*1328 FILLER_0_38_88
*1329 FILLER_0_38_92
*1330 FILLER_0_38_98
*1331 FILLER_0_3_105
*1332 FILLER_0_3_111
*1333 FILLER_0_3_113
*1334 FILLER_0_3_125
*1335 FILLER_0_3_137
*1336 FILLER_0_3_149
*1337 FILLER_0_3_15
*1338 FILLER_0_3_161
*1339 FILLER_0_3_167
*1340 FILLER_0_3_169
*1341 FILLER_0_3_181
*1342 FILLER_0_3_193
*1343 FILLER_0_3_205
*1344 FILLER_0_3_217
*1345 FILLER_0_3_223
*1346 FILLER_0_3_225
*1347 FILLER_0_3_237
*1348 FILLER_0_3_249
*1349 FILLER_0_3_261
*1350 FILLER_0_3_27
*1351 FILLER_0_3_273
*1352 FILLER_0_3_279
*1353 FILLER_0_3_281
*1354 FILLER_0_3_293
*1355 FILLER_0_3_3
*1356 FILLER_0_3_305
*1357 FILLER_0_3_317
*1358 FILLER_0_3_329
*1359 FILLER_0_3_335
*1360 FILLER_0_3_337
*1361 FILLER_0_3_349
*1362 FILLER_0_3_39
*1363 FILLER_0_3_51
*1364 FILLER_0_3_55
*1365 FILLER_0_3_57
*1366 FILLER_0_3_69
*1367 FILLER_0_3_81
*1368 FILLER_0_3_93
*1369 FILLER_0_4_109
*1370 FILLER_0_4_121
*1371 FILLER_0_4_133
*1372 FILLER_0_4_139
*1373 FILLER_0_4_141
*1374 FILLER_0_4_15
*1375 FILLER_0_4_153
*1376 FILLER_0_4_165
*1377 FILLER_0_4_177
*1378 FILLER_0_4_189
*1379 FILLER_0_4_195
*1380 FILLER_0_4_197
*1381 FILLER_0_4_209
*1382 FILLER_0_4_221
*1383 FILLER_0_4_233
*1384 FILLER_0_4_245
*1385 FILLER_0_4_251
*1386 FILLER_0_4_253
*1387 FILLER_0_4_265
*1388 FILLER_0_4_27
*1389 FILLER_0_4_277
*1390 FILLER_0_4_289
*1391 FILLER_0_4_29
*1392 FILLER_0_4_3
*1393 FILLER_0_4_301
*1394 FILLER_0_4_307
*1395 FILLER_0_4_309
*1396 FILLER_0_4_321
*1397 FILLER_0_4_333
*1398 FILLER_0_4_345
*1399 FILLER_0_4_41
*1400 FILLER_0_4_53
*1401 FILLER_0_4_65
*1402 FILLER_0_4_77
*1403 FILLER_0_4_83
*1404 FILLER_0_4_85
*1405 FILLER_0_4_97
*1406 FILLER_0_5_105
*1407 FILLER_0_5_111
*1408 FILLER_0_5_113
*1409 FILLER_0_5_125
*1410 FILLER_0_5_137
*1411 FILLER_0_5_149
*1412 FILLER_0_5_15
*1413 FILLER_0_5_161
*1414 FILLER_0_5_167
*1415 FILLER_0_5_169
*1416 FILLER_0_5_181
*1417 FILLER_0_5_193
*1418 FILLER_0_5_205
*1419 FILLER_0_5_217
*1420 FILLER_0_5_223
*1421 FILLER_0_5_225
*1422 FILLER_0_5_237
*1423 FILLER_0_5_249
*1424 FILLER_0_5_261
*1425 FILLER_0_5_27
*1426 FILLER_0_5_273
*1427 FILLER_0_5_279
*1428 FILLER_0_5_281
*1429 FILLER_0_5_293
*1430 FILLER_0_5_3
*1431 FILLER_0_5_305
*1432 FILLER_0_5_317
*1433 FILLER_0_5_329
*1434 FILLER_0_5_335
*1435 FILLER_0_5_337
*1436 FILLER_0_5_349
*1437 FILLER_0_5_39
*1438 FILLER_0_5_51
*1439 FILLER_0_5_55
*1440 FILLER_0_5_57
*1441 FILLER_0_5_69
*1442 FILLER_0_5_81
*1443 FILLER_0_5_93
*1444 FILLER_0_6_109
*1445 FILLER_0_6_121
*1446 FILLER_0_6_133
*1447 FILLER_0_6_139
*1448 FILLER_0_6_141
*1449 FILLER_0_6_15
*1450 FILLER_0_6_153
*1451 FILLER_0_6_165
*1452 FILLER_0_6_177
*1453 FILLER_0_6_189
*1454 FILLER_0_6_195
*1455 FILLER_0_6_197
*1456 FILLER_0_6_209
*1457 FILLER_0_6_221
*1458 FILLER_0_6_233
*1459 FILLER_0_6_245
*1460 FILLER_0_6_251
*1461 FILLER_0_6_253
*1462 FILLER_0_6_265
*1463 FILLER_0_6_27
*1464 FILLER_0_6_277
*1465 FILLER_0_6_289
*1466 FILLER_0_6_29
*1467 FILLER_0_6_3
*1468 FILLER_0_6_301
*1469 FILLER_0_6_307
*1470 FILLER_0_6_309
*1471 FILLER_0_6_321
*1472 FILLER_0_6_333
*1473 FILLER_0_6_345
*1474 FILLER_0_6_41
*1475 FILLER_0_6_53
*1476 FILLER_0_6_65
*1477 FILLER_0_6_77
*1478 FILLER_0_6_83
*1479 FILLER_0_6_85
*1480 FILLER_0_6_97
*1481 FILLER_0_7_105
*1482 FILLER_0_7_111
*1483 FILLER_0_7_113
*1484 FILLER_0_7_125
*1485 FILLER_0_7_137
*1486 FILLER_0_7_149
*1487 FILLER_0_7_15
*1488 FILLER_0_7_161
*1489 FILLER_0_7_167
*1490 FILLER_0_7_169
*1491 FILLER_0_7_181
*1492 FILLER_0_7_193
*1493 FILLER_0_7_205
*1494 FILLER_0_7_217
*1495 FILLER_0_7_223
*1496 FILLER_0_7_225
*1497 FILLER_0_7_237
*1498 FILLER_0_7_249
*1499 FILLER_0_7_261
*1500 FILLER_0_7_27
*1501 FILLER_0_7_273
*1502 FILLER_0_7_279
*1503 FILLER_0_7_281
*1504 FILLER_0_7_293