*SPEF "ieee 1481-1999"
*DESIGN "tt_um_wokwi_380409019830656001"
*DATE "11:11:11 Fri 11 11, 1111"
*VENDOR "OpenRCX"
*PROGRAM "Parallel Extraction"
*VERSION "1.0"
*DESIGN_FLOW "NAME_SCOPE LOCAL" "PIN_CAP NONE"
*DIVIDER /
*DELIMITER :
*BUS_DELIMITER []
*T_UNIT 1 NS
*C_UNIT 1 PF
*R_UNIT 1 OHM
*L_UNIT 1 HENRY

*NAME_MAP
*3 clk
*4 ena
*5 rst_n
*6 ui_in[0]
*7 ui_in[1]
*8 ui_in[2]
*9 ui_in[3]
*10 ui_in[4]
*11 ui_in[5]
*12 ui_in[6]
*13 ui_in[7]
*14 uio_in[0]
*15 uio_in[1]
*16 uio_in[2]
*17 uio_in[3]
*18 uio_in[4]
*19 uio_in[5]
*20 uio_in[6]
*21 uio_in[7]
*22 net3
*23 net4
*24 net5
*25 net6
*26 net7
*27 net8
*28 net9
*29 net10
*30 net11
*31 net12
*32 net13
*33 net14
*34 net15
*35 net16
*36 net17
*37 net18
*38 uo_out[0]
*39 uo_out[1]
*40 uo_out[2]
*41 uo_out[3]
*42 uo_out[4]
*43 net19
*44 net20
*45 net21
*46 _00_
*47 _01_
*48 and1\.out
*49 flop1\.clk
*50 flop1\.d
*51 flop1\.q
*52 flop10\.clk
*53 flop10\.d
*54 flop10\.q
*55 flop11\.d
*56 flop11\.q
*57 flop12\.d
*58 flop13\.clk
*59 flop13\.d
*60 flop13\.q
*61 flop14\.d
*62 flop14\.q
*63 flop15\.d
*64 flop15\.q
*65 flop16\.d
*66 flop16\.q
*67 flop2\.d
*68 flop2\.q
*69 flop3\.d
*70 flop3\.q
*71 flop4\.clk
*72 flop4\.d
*73 flop4\.q
*74 flop5\.d
*75 flop6\.d
*76 flop7\.d
*77 flop7\.q
*78 flop8\.d
*79 flop8\.q
*80 flop9\.d
*81 nand1\.out
*82 net1
*83 net2
*84 net22
*85 or1\.out
*86 FILLER_0_0_109
*87 FILLER_0_0_113
*88 FILLER_0_0_125
*89 FILLER_0_0_137
*90 FILLER_0_0_141
*91 FILLER_0_0_15
*92 FILLER_0_0_153
*93 FILLER_0_0_165
*94 FILLER_0_0_169
*95 FILLER_0_0_181
*96 FILLER_0_0_193
*97 FILLER_0_0_197
*98 FILLER_0_0_209
*99 FILLER_0_0_221
*100 FILLER_0_0_225
*101 FILLER_0_0_237
*102 FILLER_0_0_249
*103 FILLER_0_0_253
*104 FILLER_0_0_265
*105 FILLER_0_0_27
*106 FILLER_0_0_277
*107 FILLER_0_0_281
*108 FILLER_0_0_29
*109 FILLER_0_0_293
*110 FILLER_0_0_3
*111 FILLER_0_0_305
*112 FILLER_0_0_309
*113 FILLER_0_0_321
*114 FILLER_0_0_333
*115 FILLER_0_0_337
*116 FILLER_0_0_349
*117 FILLER_0_0_41
*118 FILLER_0_0_53
*119 FILLER_0_0_57
*120 FILLER_0_0_69
*121 FILLER_0_0_81
*122 FILLER_0_0_85
*123 FILLER_0_0_97
*124 FILLER_0_10_109
*125 FILLER_0_10_121
*126 FILLER_0_10_133
*127 FILLER_0_10_139
*128 FILLER_0_10_141
*129 FILLER_0_10_15
*130 FILLER_0_10_153
*131 FILLER_0_10_165
*132 FILLER_0_10_177
*133 FILLER_0_10_189
*134 FILLER_0_10_195
*135 FILLER_0_10_197
*136 FILLER_0_10_209
*137 FILLER_0_10_221
*138 FILLER_0_10_233
*139 FILLER_0_10_245
*140 FILLER_0_10_251
*141 FILLER_0_10_253
*142 FILLER_0_10_265
*143 FILLER_0_10_27
*144 FILLER_0_10_277
*145 FILLER_0_10_289
*146 FILLER_0_10_29
*147 FILLER_0_10_3
*148 FILLER_0_10_301
*149 FILLER_0_10_307
*150 FILLER_0_10_309
*151 FILLER_0_10_321
*152 FILLER_0_10_333
*153 FILLER_0_10_345
*154 FILLER_0_10_41
*155 FILLER_0_10_53
*156 FILLER_0_10_65
*157 FILLER_0_10_77
*158 FILLER_0_10_83
*159 FILLER_0_10_85
*160 FILLER_0_10_97
*161 FILLER_0_11_105
*162 FILLER_0_11_111
*163 FILLER_0_11_113
*164 FILLER_0_11_125
*165 FILLER_0_11_137
*166 FILLER_0_11_149
*167 FILLER_0_11_15
*168 FILLER_0_11_161
*169 FILLER_0_11_167
*170 FILLER_0_11_169
*171 FILLER_0_11_181
*172 FILLER_0_11_193
*173 FILLER_0_11_205
*174 FILLER_0_11_217
*175 FILLER_0_11_223
*176 FILLER_0_11_225
*177 FILLER_0_11_237
*178 FILLER_0_11_249
*179 FILLER_0_11_261
*180 FILLER_0_11_27
*181 FILLER_0_11_273
*182 FILLER_0_11_279
*183 FILLER_0_11_281
*184 FILLER_0_11_293
*185 FILLER_0_11_3
*186 FILLER_0_11_305
*187 FILLER_0_11_317
*188 FILLER_0_11_329
*189 FILLER_0_11_335
*190 FILLER_0_11_337
*191 FILLER_0_11_349
*192 FILLER_0_11_39
*193 FILLER_0_11_51
*194 FILLER_0_11_55
*195 FILLER_0_11_57
*196 FILLER_0_11_69
*197 FILLER_0_11_81
*198 FILLER_0_11_93
*199 FILLER_0_12_109
*200 FILLER_0_12_121
*201 FILLER_0_12_133
*202 FILLER_0_12_139
*203 FILLER_0_12_141
*204 FILLER_0_12_15
*205 FILLER_0_12_153
*206 FILLER_0_12_165
*207 FILLER_0_12_177
*208 FILLER_0_12_189
*209 FILLER_0_12_195
*210 FILLER_0_12_197
*211 FILLER_0_12_209
*212 FILLER_0_12_221
*213 FILLER_0_12_233
*214 FILLER_0_12_245
*215 FILLER_0_12_251
*216 FILLER_0_12_253
*217 FILLER_0_12_265
*218 FILLER_0_12_27
*219 FILLER_0_12_277
*220 FILLER_0_12_289
*221 FILLER_0_12_29
*222 FILLER_0_12_3
*223 FILLER_0_12_301
*224 FILLER_0_12_307
*225 FILLER_0_12_309
*226 FILLER_0_12_321
*227 FILLER_0_12_333
*228 FILLER_0_12_345
*229 FILLER_0_12_41
*230 FILLER_0_12_53
*231 FILLER_0_12_65
*232 FILLER_0_12_77
*233 FILLER_0_12_83
*234 FILLER_0_12_85
*235 FILLER_0_12_97
*236 FILLER_0_13_105
*237 FILLER_0_13_111
*238 FILLER_0_13_113
*239 FILLER_0_13_125
*240 FILLER_0_13_137
*241 FILLER_0_13_149
*242 FILLER_0_13_15
*243 FILLER_0_13_161
*244 FILLER_0_13_167
*245 FILLER_0_13_169
*246 FILLER_0_13_181
*247 FILLER_0_13_193
*248 FILLER_0_13_205
*249 FILLER_0_13_217
*250 FILLER_0_13_223
*251 FILLER_0_13_225
*252 FILLER_0_13_237
*253 FILLER_0_13_249
*254 FILLER_0_13_261
*255 FILLER_0_13_27
*256 FILLER_0_13_273
*257 FILLER_0_13_279
*258 FILLER_0_13_281
*259 FILLER_0_13_293
*260 FILLER_0_13_3
*261 FILLER_0_13_305
*262 FILLER_0_13_317
*263 FILLER_0_13_329
*264 FILLER_0_13_335
*265 FILLER_0_13_337
*266 FILLER_0_13_349
*267 FILLER_0_13_39
*268 FILLER_0_13_51
*269 FILLER_0_13_55
*270 FILLER_0_13_57
*271 FILLER_0_13_69
*272 FILLER_0_13_81
*273 FILLER_0_13_93
*274 FILLER_0_14_109
*275 FILLER_0_14_121
*276 FILLER_0_14_133
*277 FILLER_0_14_139
*278 FILLER_0_14_141
*279 FILLER_0_14_15
*280 FILLER_0_14_153
*281 FILLER_0_14_165
*282 FILLER_0_14_177
*283 FILLER_0_14_189
*284 FILLER_0_14_195
*285 FILLER_0_14_197
*286 FILLER_0_14_209
*287 FILLER_0_14_221
*288 FILLER_0_14_233
*289 FILLER_0_14_245
*290 FILLER_0_14_251
*291 FILLER_0_14_253
*292 FILLER_0_14_265
*293 FILLER_0_14_27
*294 FILLER_0_14_277
*295 FILLER_0_14_289
*296 FILLER_0_14_29
*297 FILLER_0_14_3
*298 FILLER_0_14_301
*299 FILLER_0_14_307
*300 FILLER_0_14_309
*301 FILLER_0_14_321
*302 FILLER_0_14_333
*303 FILLER_0_14_345
*304 FILLER_0_14_41
*305 FILLER_0_14_53
*306 FILLER_0_14_65
*307 FILLER_0_14_77
*308 FILLER_0_14_83
*309 FILLER_0_14_85
*310 FILLER_0_14_97
*311 FILLER_0_15_105
*312 FILLER_0_15_111
*313 FILLER_0_15_113
*314 FILLER_0_15_125
*315 FILLER_0_15_137
*316 FILLER_0_15_149
*317 FILLER_0_15_15
*318 FILLER_0_15_161
*319 FILLER_0_15_167
*320 FILLER_0_15_169
*321 FILLER_0_15_181
*322 FILLER_0_15_193
*323 FILLER_0_15_205
*324 FILLER_0_15_217
*325 FILLER_0_15_223
*326 FILLER_0_15_225
*327 FILLER_0_15_237
*328 FILLER_0_15_249
*329 FILLER_0_15_261
*330 FILLER_0_15_27
*331 FILLER_0_15_273
*332 FILLER_0_15_279
*333 FILLER_0_15_281
*334 FILLER_0_15_293
*335 FILLER_0_15_3
*336 FILLER_0_15_305
*337 FILLER_0_15_317
*338 FILLER_0_15_329
*339 FILLER_0_15_335
*340 FILLER_0_15_337
*341 FILLER_0_15_349
*342 FILLER_0_15_39
*343 FILLER_0_15_51
*344 FILLER_0_15_55
*345 FILLER_0_15_57
*346 FILLER_0_15_69
*347 FILLER_0_15_81
*348 FILLER_0_15_93
*349 FILLER_0_16_109
*350 FILLER_0_16_121
*351 FILLER_0_16_133
*352 FILLER_0_16_139
*353 FILLER_0_16_141
*354 FILLER_0_16_15
*355 FILLER_0_16_153
*356 FILLER_0_16_165
*357 FILLER_0_16_177
*358 FILLER_0_16_189
*359 FILLER_0_16_195
*360 FILLER_0_16_197
*361 FILLER_0_16_209
*362 FILLER_0_16_221
*363 FILLER_0_16_233
*364 FILLER_0_16_245
*365 FILLER_0_16_251
*366 FILLER_0_16_253
*367 FILLER_0_16_265
*368 FILLER_0_16_27
*369 FILLER_0_16_277
*370 FILLER_0_16_289
*371 FILLER_0_16_29
*372 FILLER_0_16_3
*373 FILLER_0_16_301
*374 FILLER_0_16_307
*375 FILLER_0_16_309
*376 FILLER_0_16_321
*377 FILLER_0_16_333
*378 FILLER_0_16_345
*379 FILLER_0_16_41
*380 FILLER_0_16_53
*381 FILLER_0_16_65
*382 FILLER_0_16_77
*383 FILLER_0_16_83
*384 FILLER_0_16_85
*385 FILLER_0_16_97
*386 FILLER_0_17_105
*387 FILLER_0_17_111
*388 FILLER_0_17_113
*389 FILLER_0_17_125
*390 FILLER_0_17_137
*391 FILLER_0_17_149
*392 FILLER_0_17_15
*393 FILLER_0_17_161
*394 FILLER_0_17_167
*395 FILLER_0_17_169
*396 FILLER_0_17_181
*397 FILLER_0_17_193
*398 FILLER_0_17_205
*399 FILLER_0_17_217
*400 FILLER_0_17_223
*401 FILLER_0_17_225
*402 FILLER_0_17_237
*403 FILLER_0_17_249
*404 FILLER_0_17_261
*405 FILLER_0_17_27
*406 FILLER_0_17_273
*407 FILLER_0_17_279
*408 FILLER_0_17_281
*409 FILLER_0_17_293
*410 FILLER_0_17_3
*411 FILLER_0_17_305
*412 FILLER_0_17_317
*413 FILLER_0_17_329
*414 FILLER_0_17_335
*415 FILLER_0_17_337
*416 FILLER_0_17_349
*417 FILLER_0_17_39
*418 FILLER_0_17_51
*419 FILLER_0_17_55
*420 FILLER_0_17_57
*421 FILLER_0_17_69
*422 FILLER_0_17_81
*423 FILLER_0_17_93
*424 FILLER_0_18_109
*425 FILLER_0_18_121
*426 FILLER_0_18_133
*427 FILLER_0_18_139
*428 FILLER_0_18_141
*429 FILLER_0_18_15
*430 FILLER_0_18_153
*431 FILLER_0_18_165
*432 FILLER_0_18_177
*433 FILLER_0_18_189
*434 FILLER_0_18_195
*435 FILLER_0_18_197
*436 FILLER_0_18_209
*437 FILLER_0_18_221
*438 FILLER_0_18_233
*439 FILLER_0_18_245
*440 FILLER_0_18_251
*441 FILLER_0_18_253
*442 FILLER_0_18_265
*443 FILLER_0_18_27
*444 FILLER_0_18_277
*445 FILLER_0_18_289
*446 FILLER_0_18_29
*447 FILLER_0_18_3
*448 FILLER_0_18_301
*449 FILLER_0_18_307
*450 FILLER_0_18_309
*451 FILLER_0_18_321
*452 FILLER_0_18_333
*453 FILLER_0_18_345
*454 FILLER_0_18_41
*455 FILLER_0_18_53
*456 FILLER_0_18_65
*457 FILLER_0_18_77
*458 FILLER_0_18_83
*459 FILLER_0_18_85
*460 FILLER_0_18_97
*461 FILLER_0_19_105
*462 FILLER_0_19_111
*463 FILLER_0_19_113
*464 FILLER_0_19_125
*465 FILLER_0_19_137
*466 FILLER_0_19_149
*467 FILLER_0_19_15
*468 FILLER_0_19_161
*469 FILLER_0_19_167
*470 FILLER_0_19_169
*471 FILLER_0_19_181
*472 FILLER_0_19_193
*473 FILLER_0_19_205
*474 FILLER_0_19_217
*475 FILLER_0_19_223
*476 FILLER_0_19_225
*477 FILLER_0_19_237
*478 FILLER_0_19_249
*479 FILLER_0_19_261
*480 FILLER_0_19_27
*481 FILLER_0_19_273
*482 FILLER_0_19_279
*483 FILLER_0_19_281
*484 FILLER_0_19_293
*485 FILLER_0_19_3
*486 FILLER_0_19_305
*487 FILLER_0_19_317
*488 FILLER_0_19_329
*489 FILLER_0_19_335
*490 FILLER_0_19_337
*491 FILLER_0_19_349
*492 FILLER_0_19_39
*493 FILLER_0_19_51
*494 FILLER_0_19_55
*495 FILLER_0_19_57
*496 FILLER_0_19_69
*497 FILLER_0_19_81
*498 FILLER_0_19_93
*499 FILLER_0_1_105
*500 FILLER_0_1_111
*501 FILLER_0_1_113
*502 FILLER_0_1_125
*503 FILLER_0_1_137
*504 FILLER_0_1_149
*505 FILLER_0_1_15
*506 FILLER_0_1_161
*507 FILLER_0_1_167
*508 FILLER_0_1_169
*509 FILLER_0_1_181
*510 FILLER_0_1_193
*511 FILLER_0_1_205
*512 FILLER_0_1_217
*513 FILLER_0_1_223
*514 FILLER_0_1_225
*515 FILLER_0_1_237
*516 FILLER_0_1_249
*517 FILLER_0_1_261
*518 FILLER_0_1_27
*519 FILLER_0_1_273
*520 FILLER_0_1_279
*521 FILLER_0_1_281
*522 FILLER_0_1_293
*523 FILLER_0_1_3
*524 FILLER_0_1_305
*525 FILLER_0_1_317
*526 FILLER_0_1_329
*527 FILLER_0_1_335
*528 FILLER_0_1_337
*529 FILLER_0_1_349
*530 FILLER_0_1_39
*531 FILLER_0_1_51
*532 FILLER_0_1_55
*533 FILLER_0_1_57
*534 FILLER_0_1_69
*535 FILLER_0_1_81
*536 FILLER_0_1_93
*537 FILLER_0_20_109
*538 FILLER_0_20_121
*539 FILLER_0_20_133
*540 FILLER_0_20_139
*541 FILLER_0_20_141
*542 FILLER_0_20_15
*543 FILLER_0_20_153
*544 FILLER_0_20_165
*545 FILLER_0_20_177
*546 FILLER_0_20_189
*547 FILLER_0_20_195
*548 FILLER_0_20_197
*549 FILLER_0_20_209
*550 FILLER_0_20_221
*551 FILLER_0_20_233
*552 FILLER_0_20_245
*553 FILLER_0_20_251
*554 FILLER_0_20_253
*555 FILLER_0_20_265
*556 FILLER_0_20_27
*557 FILLER_0_20_277
*558 FILLER_0_20_289
*559 FILLER_0_20_29
*560 FILLER_0_20_3
*561 FILLER_0_20_301
*562 FILLER_0_20_307
*563 FILLER_0_20_309
*564 FILLER_0_20_321
*565 FILLER_0_20_333
*566 FILLER_0_20_345
*567 FILLER_0_20_41
*568 FILLER_0_20_53
*569 FILLER_0_20_65
*570 FILLER_0_20_77
*571 FILLER_0_20_83
*572 FILLER_0_20_85
*573 FILLER_0_20_97
*574 FILLER_0_21_105
*575 FILLER_0_21_111
*576 FILLER_0_21_113
*577 FILLER_0_21_125
*578 FILLER_0_21_137
*579 FILLER_0_21_149
*580 FILLER_0_21_15
*581 FILLER_0_21_161
*582 FILLER_0_21_167
*583 FILLER_0_21_169
*584 FILLER_0_21_181
*585 FILLER_0_21_193
*586 FILLER_0_21_205
*587 FILLER_0_21_217
*588 FILLER_0_21_223
*589 FILLER_0_21_225
*590 FILLER_0_21_237
*591 FILLER_0_21_249
*592 FILLER_0_21_261
*593 FILLER_0_21_27
*594 FILLER_0_21_273
*595 FILLER_0_21_279
*596 FILLER_0_21_281
*597 FILLER_0_21_293
*598 FILLER_0_21_3
*599 FILLER_0_21_305
*600 FILLER_0_21_317
*601 FILLER_0_21_329
*602 FILLER_0_21_335
*603 FILLER_0_21_337
*604 FILLER_0_21_349
*605 FILLER_0_21_39
*606 FILLER_0_21_51
*607 FILLER_0_21_55
*608 FILLER_0_21_57
*609 FILLER_0_21_69
*610 FILLER_0_21_81
*611 FILLER_0_21_93
*612 FILLER_0_22_109
*613 FILLER_0_22_121
*614 FILLER_0_22_133
*615 FILLER_0_22_139
*616 FILLER_0_22_141
*617 FILLER_0_22_15
*618 FILLER_0_22_153
*619 FILLER_0_22_165
*620 FILLER_0_22_177
*621 FILLER_0_22_189
*622 FILLER_0_22_195
*623 FILLER_0_22_197
*624 FILLER_0_22_209
*625 FILLER_0_22_221
*626 FILLER_0_22_233
*627 FILLER_0_22_245
*628 FILLER_0_22_251
*629 FILLER_0_22_253
*630 FILLER_0_22_265
*631 FILLER_0_22_27
*632 FILLER_0_22_277
*633 FILLER_0_22_289
*634 FILLER_0_22_29
*635 FILLER_0_22_3
*636 FILLER_0_22_301
*637 FILLER_0_22_307
*638 FILLER_0_22_309
*639 FILLER_0_22_321
*640 FILLER_0_22_333
*641 FILLER_0_22_345
*642 FILLER_0_22_41
*643 FILLER_0_22_53
*644 FILLER_0_22_65
*645 FILLER_0_22_77
*646 FILLER_0_22_83
*647 FILLER_0_22_85
*648 FILLER_0_22_97
*649 FILLER_0_23_105
*650 FILLER_0_23_111
*651 FILLER_0_23_113
*652 FILLER_0_23_125
*653 FILLER_0_23_137
*654 FILLER_0_23_149
*655 FILLER_0_23_15
*656 FILLER_0_23_161
*657 FILLER_0_23_167
*658 FILLER_0_23_169
*659 FILLER_0_23_181
*660 FILLER_0_23_193
*661 FILLER_0_23_205
*662 FILLER_0_23_217
*663 FILLER_0_23_223
*664 FILLER_0_23_225
*665 FILLER_0_23_237
*666 FILLER_0_23_249
*667 FILLER_0_23_261
*668 FILLER_0_23_27
*669 FILLER_0_23_273
*670 FILLER_0_23_279
*671 FILLER_0_23_281
*672 FILLER_0_23_293
*673 FILLER_0_23_3
*674 FILLER_0_23_305
*675 FILLER_0_23_317
*676 FILLER_0_23_329
*677 FILLER_0_23_335
*678 FILLER_0_23_337
*679 FILLER_0_23_349
*680 FILLER_0_23_39
*681 FILLER_0_23_51
*682 FILLER_0_23_55
*683 FILLER_0_23_57
*684 FILLER_0_23_69
*685 FILLER_0_23_81
*686 FILLER_0_23_93
*687 FILLER_0_24_109
*688 FILLER_0_24_121
*689 FILLER_0_24_133
*690 FILLER_0_24_139
*691 FILLER_0_24_141
*692 FILLER_0_24_15
*693 FILLER_0_24_153
*694 FILLER_0_24_165
*695 FILLER_0_24_177
*696 FILLER_0_24_189
*697 FILLER_0_24_195
*698 FILLER_0_24_197
*699 FILLER_0_24_209
*700 FILLER_0_24_221
*701 FILLER_0_24_233
*702 FILLER_0_24_245
*703 FILLER_0_24_251
*704 FILLER_0_24_253
*705 FILLER_0_24_265
*706 FILLER_0_24_27
*707 FILLER_0_24_277
*708 FILLER_0_24_289
*709 FILLER_0_24_29
*710 FILLER_0_24_3
*711 FILLER_0_24_301
*712 FILLER_0_24_307
*713 FILLER_0_24_309
*714 FILLER_0_24_321
*715 FILLER_0_24_333
*716 FILLER_0_24_345
*717 FILLER_0_24_41
*718 FILLER_0_24_53
*719 FILLER_0_24_65
*720 FILLER_0_24_77
*721 FILLER_0_24_83
*722 FILLER_0_24_85
*723 FILLER_0_24_97
*724 FILLER_0_25_105
*725 FILLER_0_25_111
*726 FILLER_0_25_113
*727 FILLER_0_25_125
*728 FILLER_0_25_137
*729 FILLER_0_25_149
*730 FILLER_0_25_15
*731 FILLER_0_25_161
*732 FILLER_0_25_167
*733 FILLER_0_25_169
*734 FILLER_0_25_181
*735 FILLER_0_25_193
*736 FILLER_0_25_205
*737 FILLER_0_25_217
*738 FILLER_0_25_223
*739 FILLER_0_25_225
*740 FILLER_0_25_237
*741 FILLER_0_25_249
*742 FILLER_0_25_261
*743 FILLER_0_25_27
*744 FILLER_0_25_273
*745 FILLER_0_25_279
*746 FILLER_0_25_281
*747 FILLER_0_25_293
*748 FILLER_0_25_3
*749 FILLER_0_25_305
*750 FILLER_0_25_317
*751 FILLER_0_25_329
*752 FILLER_0_25_335
*753 FILLER_0_25_337
*754 FILLER_0_25_349
*755 FILLER_0_25_39
*756 FILLER_0_25_51
*757 FILLER_0_25_55
*758 FILLER_0_25_57
*759 FILLER_0_25_69
*760 FILLER_0_25_81
*761 FILLER_0_25_93
*762 FILLER_0_26_109
*763 FILLER_0_26_121
*764 FILLER_0_26_133
*765 FILLER_0_26_139
*766 FILLER_0_26_141
*767 FILLER_0_26_15
*768 FILLER_0_26_153
*769 FILLER_0_26_165
*770 FILLER_0_26_177
*771 FILLER_0_26_189
*772 FILLER_0_26_195
*773 FILLER_0_26_197
*774 FILLER_0_26_209
*775 FILLER_0_26_221
*776 FILLER_0_26_233
*777 FILLER_0_26_245
*778 FILLER_0_26_251
*779 FILLER_0_26_253
*780 FILLER_0_26_265
*781 FILLER_0_26_27
*782 FILLER_0_26_277
*783 FILLER_0_26_289
*784 FILLER_0_26_29
*785 FILLER_0_26_3
*786 FILLER_0_26_301
*787 FILLER_0_26_307
*788 FILLER_0_26_309
*789 FILLER_0_26_321
*790 FILLER_0_26_333
*791 FILLER_0_26_345
*792 FILLER_0_26_41
*793 FILLER_0_26_53
*794 FILLER_0_26_65
*795 FILLER_0_26_77
*796 FILLER_0_26_83
*797 FILLER_0_26_85
*798 FILLER_0_26_97
*799 FILLER_0_27_105
*800 FILLER_0_27_111
*801 FILLER_0_27_113
*802 FILLER_0_27_125
*803 FILLER_0_27_137
*804 FILLER_0_27_149
*805 FILLER_0_27_15
*806 FILLER_0_27_161
*807 FILLER_0_27_167
*808 FILLER_0_27_169
*809 FILLER_0_27_181
*810 FILLER_0_27_193
*811 FILLER_0_27_205
*812 FILLER_0_27_217
*813 FILLER_0_27_223
*814 FILLER_0_27_225
*815 FILLER_0_27_237
*816 FILLER_0_27_249
*817 FILLER_0_27_261
*818 FILLER_0_27_27
*819 FILLER_0_27_273
*820 FILLER_0_27_279
*821 FILLER_0_27_281
*822 FILLER_0_27_293
*823 FILLER_0_27_3
*824 FILLER_0_27_305
*825 FILLER_0_27_317
*826 FILLER_0_27_329
*827 FILLER_0_27_335
*828 FILLER_0_27_337
*829 FILLER_0_27_349
*830 FILLER_0_27_39
*831 FILLER_0_27_51
*832 FILLER_0_27_55
*833 FILLER_0_27_57
*834 FILLER_0_27_69
*835 FILLER_0_27_81
*836 FILLER_0_27_93
*837 FILLER_0_28_109
*838 FILLER_0_28_121
*839 FILLER_0_28_133
*840 FILLER_0_28_139
*841 FILLER_0_28_141
*842 FILLER_0_28_15
*843 FILLER_0_28_153
*844 FILLER_0_28_165
*845 FILLER_0_28_177
*846 FILLER_0_28_189
*847 FILLER_0_28_195
*848 FILLER_0_28_197
*849 FILLER_0_28_209
*850 FILLER_0_28_221
*851 FILLER_0_28_233
*852 FILLER_0_28_245
*853 FILLER_0_28_251
*854 FILLER_0_28_253
*855 FILLER_0_28_265
*856 FILLER_0_28_27
*857 FILLER_0_28_277
*858 FILLER_0_28_289
*859 FILLER_0_28_29
*860 FILLER_0_28_3
*861 FILLER_0_28_301
*862 FILLER_0_28_307
*863 FILLER_0_28_309
*864 FILLER_0_28_321
*865 FILLER_0_28_333
*866 FILLER_0_28_345
*867 FILLER_0_28_41
*868 FILLER_0_28_53
*869 FILLER_0_28_65
*870 FILLER_0_28_77
*871 FILLER_0_28_83
*872 FILLER_0_28_85
*873 FILLER_0_28_97
*874 FILLER_0_29_105
*875 FILLER_0_29_111
*876 FILLER_0_29_113
*877 FILLER_0_29_125
*878 FILLER_0_29_137
*879 FILLER_0_29_149
*880 FILLER_0_29_15
*881 FILLER_0_29_161
*882 FILLER_0_29_167
*883 FILLER_0_29_169
*884 FILLER_0_29_181
*885 FILLER_0_29_193
*886 FILLER_0_29_205
*887 FILLER_0_29_217
*888 FILLER_0_29_223
*889 FILLER_0_29_225
*890 FILLER_0_29_237
*891 FILLER_0_29_249
*892 FILLER_0_29_261
*893 FILLER_0_29_27
*894 FILLER_0_29_273
*895 FILLER_0_29_279
*896 FILLER_0_29_281
*897 FILLER_0_29_293
*898 FILLER_0_29_3
*899 FILLER_0_29_305
*900 FILLER_0_29_317
*901 FILLER_0_29_329
*902 FILLER_0_29_335
*903 FILLER_0_29_337
*904 FILLER_0_29_349
*905 FILLER_0_29_39
*906 FILLER_0_29_51
*907 FILLER_0_29_55
*908 FILLER_0_29_57
*909 FILLER_0_29_69
*910 FILLER_0_29_81
*911 FILLER_0_29_93
*912 FILLER_0_2_109
*913 FILLER_0_2_121
*914 FILLER_0_2_133
*915 FILLER_0_2_139
*916 FILLER_0_2_141
*917 FILLER_0_2_15
*918 FILLER_0_2_153
*919 FILLER_0_2_165
*920 FILLER_0_2_177
*921 FILLER_0_2_189
*922 FILLER_0_2_195
*923 FILLER_0_2_197
*924 FILLER_0_2_209
*925 FILLER_0_2_221
*926 FILLER_0_2_233
*927 FILLER_0_2_245
*928 FILLER_0_2_251
*929 FILLER_0_2_253
*930 FILLER_0_2_265
*931 FILLER_0_2_27
*932 FILLER_0_2_277
*933 FILLER_0_2_289
*934 FILLER_0_2_29
*935 FILLER_0_2_3
*936 FILLER_0_2_301
*937 FILLER_0_2_307
*938 FILLER_0_2_309
*939 FILLER_0_2_321
*940 FILLER_0_2_333
*941 FILLER_0_2_345
*942 FILLER_0_2_41
*943 FILLER_0_2_53
*944 FILLER_0_2_65
*945 FILLER_0_2_77
*946 FILLER_0_2_83
*947 FILLER_0_2_85
*948 FILLER_0_2_97
*949 FILLER_0_30_109
*950 FILLER_0_30_121
*951 FILLER_0_30_133
*952 FILLER_0_30_139
*953 FILLER_0_30_141
*954 FILLER_0_30_15
*955 FILLER_0_30_153
*956 FILLER_0_30_165
*957 FILLER_0_30_177
*958 FILLER_0_30_189
*959 FILLER_0_30_195
*960 FILLER_0_30_197
*961 FILLER_0_30_209
*962 FILLER_0_30_221
*963 FILLER_0_30_233
*964 FILLER_0_30_245
*965 FILLER_0_30_251
*966 FILLER_0_30_253
*967 FILLER_0_30_265
*968 FILLER_0_30_27
*969 FILLER_0_30_277
*970 FILLER_0_30_289
*971 FILLER_0_30_29
*972 FILLER_0_30_3
*973 FILLER_0_30_301
*974 FILLER_0_30_307
*975 FILLER_0_30_309
*976 FILLER_0_30_321
*977 FILLER_0_30_333
*978 FILLER_0_30_345
*979 FILLER_0_30_41
*980 FILLER_0_30_53
*981 FILLER_0_30_65
*982 FILLER_0_30_77
*983 FILLER_0_30_83
*984 FILLER_0_30_85
*985 FILLER_0_30_97
*986 FILLER_0_31_105
*987 FILLER_0_31_111
*988 FILLER_0_31_113
*989 FILLER_0_31_125
*990 FILLER_0_31_137
*991 FILLER_0_31_149
*992 FILLER_0_31_15
*993 FILLER_0_31_161
*994 FILLER_0_31_167
*995 FILLER_0_31_169
*996 FILLER_0_31_181
*997 FILLER_0_31_193
*998 FILLER_0_31_205
*999 FILLER_0_31_217
*1000 FILLER_0_31_223
*1001 FILLER_0_31_225
*1002 FILLER_0_31_237
*1003 FILLER_0_31_249
*1004 FILLER_0_31_261
*1005 FILLER_0_31_27
*1006 FILLER_0_31_273
*1007 FILLER_0_31_279
*1008 FILLER_0_31_281
*1009 FILLER_0_31_293
*1010 FILLER_0_31_3
*1011 FILLER_0_31_305
*1012 FILLER_0_31_317
*1013 FILLER_0_31_329
*1014 FILLER_0_31_335
*1015 FILLER_0_31_337
*1016 FILLER_0_31_349
*1017 FILLER_0_31_39
*1018 FILLER_0_31_51
*1019 FILLER_0_31_55
*1020 FILLER_0_31_57
*1021 FILLER_0_31_69
*1022 FILLER_0_31_81
*1023 FILLER_0_31_93
*1024 FILLER_0_32_109
*1025 FILLER_0_32_121
*1026 FILLER_0_32_133
*1027 FILLER_0_32_139
*1028 FILLER_0_32_141
*1029 FILLER_0_32_15
*1030 FILLER_0_32_153
*1031 FILLER_0_32_165
*1032 FILLER_0_32_177
*1033 FILLER_0_32_189
*1034 FILLER_0_32_195
*1035 FILLER_0_32_197
*1036 FILLER_0_32_209
*1037 FILLER_0_32_221
*1038 FILLER_0_32_233
*1039 FILLER_0_32_245
*1040 FILLER_0_32_251
*1041 FILLER_0_32_253
*1042 FILLER_0_32_265
*1043 FILLER_0_32_27
*1044 FILLER_0_32_277
*1045 FILLER_0_32_289
*1046 FILLER_0_32_29
*1047 FILLER_0_32_3
*1048 FILLER_0_32_301
*1049 FILLER_0_32_307
*1050 FILLER_0_32_309
*1051 FILLER_0_32_321
*1052 FILLER_0_32_333
*1053 FILLER_0_32_345
*1054 FILLER_0_32_41
*1055 FILLER_0_32_53
*1056 FILLER_0_32_65
*1057 FILLER_0_32_77
*1058 FILLER_0_32_83
*1059 FILLER_0_32_85
*1060 FILLER_0_32_97
*1061 FILLER_0_33_105
*1062 FILLER_0_33_111
*1063 FILLER_0_33_113
*1064 FILLER_0_33_125
*1065 FILLER_0_33_137
*1066 FILLER_0_33_149
*1067 FILLER_0_33_15
*1068 FILLER_0_33_161
*1069 FILLER_0_33_167
*1070 FILLER_0_33_169
*1071 FILLER_0_33_181
*1072 FILLER_0_33_193
*1073 FILLER_0_33_205
*1074 FILLER_0_33_217
*1075 FILLER_0_33_223
*1076 FILLER_0_33_225
*1077 FILLER_0_33_237
*1078 FILLER_0_33_249
*1079 FILLER_0_33_261
*1080 FILLER_0_33_27
*1081 FILLER_0_33_273
*1082 FILLER_0_33_279
*1083 FILLER_0_33_281
*1084 FILLER_0_33_293
*1085 FILLER_0_33_3
*1086 FILLER_0_33_305
*1087 FILLER_0_33_317
*1088 FILLER_0_33_329
*1089 FILLER_0_33_335
*1090 FILLER_0_33_337
*1091 FILLER_0_33_349
*1092 FILLER_0_33_39
*1093 FILLER_0_33_51
*1094 FILLER_0_33_55
*1095 FILLER_0_33_57
*1096 FILLER_0_33_69
*1097 FILLER_0_33_81
*1098 FILLER_0_33_93
*1099 FILLER_0_34_109
*1100 FILLER_0_34_121
*1101 FILLER_0_34_133
*1102 FILLER_0_34_139
*1103 FILLER_0_34_141
*1104 FILLER_0_34_15
*1105 FILLER_0_34_153
*1106 FILLER_0_34_165
*1107 FILLER_0_34_177
*1108 FILLER_0_34_189
*1109 FILLER_0_34_195
*1110 FILLER_0_34_197
*1111 FILLER_0_34_209
*1112 FILLER_0_34_221
*1113 FILLER_0_34_233
*1114 FILLER_0_34_245
*1115 FILLER_0_34_251
*1116 FILLER_0_34_253
*1117 FILLER_0_34_265
*1118 FILLER_0_34_27
*1119 FILLER_0_34_277
*1120 FILLER_0_34_289
*1121 FILLER_0_34_29
*1122 FILLER_0_34_3
*1123 FILLER_0_34_301
*1124 FILLER_0_34_307
*1125 FILLER_0_34_309
*1126 FILLER_0_34_321
*1127 FILLER_0_34_333
*1128 FILLER_0_34_345
*1129 FILLER_0_34_41
*1130 FILLER_0_34_53
*1131 FILLER_0_34_65
*1132 FILLER_0_34_77
*1133 FILLER_0_34_83
*1134 FILLER_0_34_85
*1135 FILLER_0_34_97
*1136 FILLER_0_35_105
*1137 FILLER_0_35_111
*1138 FILLER_0_35_113
*1139 FILLER_0_35_125
*1140 FILLER_0_35_131
*1141 FILLER_0_35_148
*1142 FILLER_0_35_15
*1143 FILLER_0_35_152
*1144 FILLER_0_35_156
*1145 FILLER_0_35_169
*1146 FILLER_0_35_181
*1147 FILLER_0_35_190
*1148 FILLER_0_35_198
*1149 FILLER_0_35_218
*1150 FILLER_0_35_225
*1151 FILLER_0_35_245
*1152 FILLER_0_35_257
*1153 FILLER_0_35_269
*1154 FILLER_0_35_27
*1155 FILLER_0_35_277
*1156 FILLER_0_35_281
*1157 FILLER_0_35_293
*1158 FILLER_0_35_3
*1159 FILLER_0_35_305
*1160 FILLER_0_35_317
*1161 FILLER_0_35_329
*1162 FILLER_0_35_335
*1163 FILLER_0_35_337
*1164 FILLER_0_35_349
*1165 FILLER_0_35_39
*1166 FILLER_0_35_51
*1167 FILLER_0_35_55
*1168 FILLER_0_35_57
*1169 FILLER_0_35_69
*1170 FILLER_0_35_81
*1171 FILLER_0_35_93
*1172 FILLER_0_36_109
*1173 FILLER_0_36_121
*1174 FILLER_0_36_133
*1175 FILLER_0_36_139
*1176 FILLER_0_36_15
*1177 FILLER_0_36_179
*1178 FILLER_0_36_197
*1179 FILLER_0_36_209
*1180 FILLER_0_36_217
*1181 FILLER_0_36_239
*1182 FILLER_0_36_243
*1183 FILLER_0_36_251
*1184 FILLER_0_36_253
*1185 FILLER_0_36_257
*1186 FILLER_0_36_27
*1187 FILLER_0_36_279
*1188 FILLER_0_36_29
*1189 FILLER_0_36_291
*1190 FILLER_0_36_297
*1191 FILLER_0_36_3
*1192 FILLER_0_36_305
*1193 FILLER_0_36_309
*1194 FILLER_0_36_317
*1195 FILLER_0_36_321
*1196 FILLER_0_36_333
*1197 FILLER_0_36_345
*1198 FILLER_0_36_41
*1199 FILLER_0_36_53
*1200 FILLER_0_36_65
*1201 FILLER_0_36_77
*1202 FILLER_0_36_83
*1203 FILLER_0_36_85
*1204 FILLER_0_36_97
*1205 FILLER_0_37_105
*1206 FILLER_0_37_111
*1207 FILLER_0_37_113
*1208 FILLER_0_37_125
*1209 FILLER_0_37_137
*1210 FILLER_0_37_149
*1211 FILLER_0_37_15
*1212 FILLER_0_37_161
*1213 FILLER_0_37_167
*1214 FILLER_0_37_169
*1215 FILLER_0_37_192
*1216 FILLER_0_37_204
*1217 FILLER_0_37_211
*1218 FILLER_0_37_219
*1219 FILLER_0_37_27
*1220 FILLER_0_37_276
*1221 FILLER_0_37_3
*1222 FILLER_0_37_332
*1223 FILLER_0_37_337
*1224 FILLER_0_37_349
*1225 FILLER_0_37_39
*1226 FILLER_0_37_51
*1227 FILLER_0_37_55
*1228 FILLER_0_37_57
*1229 FILLER_0_37_69
*1230 FILLER_0_37_81
*1231 FILLER_0_37_93
*1232 FILLER_0_38_104
*1233 FILLER_0_38_110
*1234 FILLER_0_38_116
*1235 FILLER_0_38_122
*1236 FILLER_0_38_128
*1237 FILLER_0_38_134
*1238 FILLER_0_38_141
*1239 FILLER_0_38_146
*1240 FILLER_0_38_15
*1241 FILLER_0_38_152
*1242 FILLER_0_38_158
*1243 FILLER_0_38_164
*1244 FILLER_0_38_172
*1245 FILLER_0_38_180
*1246 FILLER_0_38_187
*1247 FILLER_0_38_195
*1248 FILLER_0_38_220
*1249 FILLER_0_38_225
*1250 FILLER_0_38_237
*1251 FILLER_0_38_249
*1252 FILLER_0_38_253
*1253 FILLER_0_38_265
*1254 FILLER_0_38_27
*1255 FILLER_0_38_277
*1256 FILLER_0_38_281
*1257 FILLER_0_38_29
*1258 FILLER_0_38_296
*1259 FILLER_0_38_3
*1260 FILLER_0_38_302
*1261 FILLER_0_38_333
*1262 FILLER_0_38_337
*1263 FILLER_0_38_349
*1264 FILLER_0_38_41
*1265 FILLER_0_38_53
*1266 FILLER_0_38_57
*1267 FILLER_0_38_68
*1268 FILLER_0_38_74
*1269 FILLER_0_38_80
*1270 FILLER_0_38_88
*1271 FILLER_0_38_92
*1272 FILLER_0_38_98
*1273 FILLER_0_3_105
*1274 FILLER_0_3_111
*1275 FILLER_0_3_113
*1276 FILLER_0_3_125
*1277 FILLER_0_3_137
*1278 FILLER_0_3_149
*1279 FILLER_0_3_15
*1280 FILLER_0_3_161
*1281 FILLER_0_3_167
*1282 FILLER_0_3_169
*1283 FILLER_0_3_181
*1284 FILLER_0_3_193
*1285 FILLER_0_3_205
*1286 FILLER_0_3_217
*1287 FILLER_0_3_223
*1288 FILLER_0_3_225
*1289 FILLER_0_3_237
*1290 FILLER_0_3_249
*1291 FILLER_0_3_261
*1292 FILLER_0_3_27
*1293 FILLER_0_3_273
*1294 FILLER_0_3_279
*1295 FILLER_0_3_281
*1296 FILLER_0_3_293
*1297 FILLER_0_3_3
*1298 FILLER_0_3_305
*1299 FILLER_0_3_317
*1300 FILLER_0_3_329
*1301 FILLER_0_3_335
*1302 FILLER_0_3_337
*1303 FILLER_0_3_349
*1304 FILLER_0_3_39
*1305 FILLER_0_3_51
*1306 FILLER_0_3_55
*1307 FILLER_0_3_57
*1308 FILLER_0_3_69
*1309 FILLER_0_3_81
*1310 FILLER_0_3_93
*1311 FILLER_0_4_109
*1312 FILLER_0_4_121
*1313 FILLER_0_4_133
*1314 FILLER_0_4_139
*1315 FILLER_0_4_141
*1316 FILLER_0_4_15
*1317 FILLER_0_4_153
*1318 FILLER_0_4_165
*1319 FILLER_0_4_177
*1320 FILLER_0_4_189
*1321 FILLER_0_4_195
*1322 FILLER_0_4_197
*1323 FILLER_0_4_209
*1324 FILLER_0_4_221
*1325 FILLER_0_4_233
*1326 FILLER_0_4_245
*1327 FILLER_0_4_251
*1328 FILLER_0_4_253
*1329 FILLER_0_4_265
*1330 FILLER_0_4_27
*1331 FILLER_0_4_277
*1332 FILLER_0_4_289
*1333 FILLER_0_4_29
*1334 FILLER_0_4_3
*1335 FILLER_0_4_301
*1336 FILLER_0_4_307
*1337 FILLER_0_4_309
*1338 FILLER_0_4_321
*1339 FILLER_0_4_333
*1340 FILLER_0_4_345
*1341 FILLER_0_4_41
*1342 FILLER_0_4_53
*1343 FILLER_0_4_65
*1344 FILLER_0_4_77
*1345 FILLER_0_4_83
*1346 FILLER_0_4_85
*1347 FILLER_0_4_97
*1348 FILLER_0_5_105
*1349 FILLER_0_5_111
*1350 FILLER_0_5_113
*1351 FILLER_0_5_125
*1352 FILLER_0_5_137
*1353 FILLER_0_5_149
*1354 FILLER_0_5_15
*1355 FILLER_0_5_161
*1356 FILLER_0_5_167
*1357 FILLER_0_5_169
*1358 FILLER_0_5_181
*1359 FILLER_0_5_193
*1360 FILLER_0_5_205
*1361 FILLER_0_5_217
*1362 FILLER_0_5_223
*1363 FILLER_0_5_225
*1364 FILLER_0_5_237
*1365 FILLER_0_5_249
*1366 FILLER_0_5_261
*1367 FILLER_0_5_27
*1368 FILLER_0_5_273
*1369 FILLER_0_5_279
*1370 FILLER_0_5_281
*1371 FILLER_0_5_293
*1372 FILLER_0_5_3
*1373 FILLER_0_5_305
*1374 FILLER_0_5_317
*1375 FILLER_0_5_329
*1376 FILLER_0_5_335
*1377 FILLER_0_5_337
*1378 FILLER_0_5_349
*1379 FILLER_0_5_39
*1380 FILLER_0_5_51
*1381 FILLER_0_5_55
*1382 FILLER_0_5_57
*1383 FILLER_0_5_69
*1384 FILLER_0_5_81
*1385 FILLER_0_5_93
*1386 FILLER_0_6_109
*1387 FILLER_0_6_121
*1388 FILLER_0_6_133
*1389 FILLER_0_6_139
*1390 FILLER_0_6_141
*1391 FILLER_0_6_15
*1392 FILLER_0_6_153
*1393 FILLER_0_6_165
*1394 FILLER_0_6_177
*1395 FILLER_0_6_189
*1396 FILLER_0_6_195
*1397 FILLER_0_6_197
*1398 FILLER_0_6_209
*1399 FILLER_0_6_221
*1400 FILLER_0_6_233
*1401 FILLER_0_6_245
*1402 FILLER_0_6_251
*1403 FILLER_0_6_253
*1404 FILLER_0_6_265
*1405 FILLER_0_6_27
*1406 FILLER_0_6_277
*1407 FILLER_0_6_289
*1408 FILLER_0_6_29
*1409 FILLER_0_6_3
*1410 FILLER_0_6_301
*1411 FILLER_0_6_307
*1412 FILLER_0_6_309
*1413 FILLER_0_6_321
*1414 FILLER_0_6_333
*1415 FILLER_0_6_345
*1416 FILLER_0_6_41
*1417 FILLER_0_6_53
*1418 FILLER_0_6_65
*1419 FILLER_0_6_77
*1420 FILLER_0_6_83
*1421 FILLER_0_6_85
*1422 FILLER_0_6_97
*1423 FILLER_0_7_105
*1424 FILLER_0_7_111
*1425 FILLER_0_7_113
*1426 FILLER_0_7_125
*1427 FILLER_0_7_137
*1428 FILLER_0_7_149
*1429 FILLER_0_7_15
*1430 FILLER_0_7_161
*1431 FILLER_0_7_167
*1432 FILLER_0_7_169
*1433 FILLER_0_7_181
*1434 FILLER_0_7_193
*1435 FILLER_0_7_205
*1436 FILLER_0_7_217
*1437 FILLER_0_7_223
*1438 FILLER_0_7_225
*1439 FILLER_0_7_237
*1440 FILLER_0_7_249
*1441 FILLER_0_7_261
*1442 FILLER_0_7_27
*1443 FILLER_0_7_273
*1444 FILLER_0_7_279
*1445 FILLER_0_7_281
*1446 FILLER_0_7_293
*1447 FILLER_0_7_3
*1448 FILLER_0_7_305
*1449 FILLER_0_7_317
*1450 FILLER_0_7_329
*1451 FILLER_0_7_335
*1452 FILLER_0_7_337
*1453 FILLER_0_7_349
*1454 FILLER_0_7_39
*1455 FILLER_0_7_51
*1456 FILLER_0_7_55
*1457 FILLER_0_7_57
*1458 FILLER_0_7_69
*1459 FILLER_0_7_81
*1460 FILLER_0_7_93
*1461 FILLER_0_8_109
*1462 FILLER_0_8_121
*1463 FILLER_0_8_133