*SPEF "ieee 1481-1999"
*DESIGN "tt_um_rjmorgan11_calculator_chip"
*DATE "11:11:11 Fri 11 11, 1111"
*VENDOR "OpenRCX"
*PROGRAM "Parallel Extraction"
*VERSION "1.0"
*DESIGN_FLOW "NAME_SCOPE LOCAL" "PIN_CAP NONE"
*DIVIDER /
*DELIMITER :
*BUS_DELIMITER []
*T_UNIT 1 NS
*C_UNIT 1 PF
*R_UNIT 1 OHM
*L_UNIT 1 HENRY

*NAME_MAP
*3 clk
*4 ena
*5 rst_n
*6 ui_in[0]
*7 ui_in[1]
*8 ui_in[2]
*9 ui_in[3]
*10 ui_in[4]
*11 ui_in[5]
*12 ui_in[6]
*13 ui_in[7]
*14 uio_in[0]
*15 uio_in[1]
*16 uio_in[2]
*17 uio_in[3]
*18 uio_in[4]
*19 uio_in[5]
*20 uio_in[6]
*21 uio_in[7]
*22 net17
*23 net18
*24 net19
*25 net20
*26 net21
*27 net27
*28 net28
*29 net29
*30 net22
*31 net23
*32 net24
*33 net25
*34 net26
*35 uio_out[5]
*36 uio_out[6]
*37 uio_out[7]
*38 uo_out[0]
*39 uo_out[1]
*40 uo_out[2]
*41 uo_out[3]
*42 uo_out[4]
*43 uo_out[5]
*44 uo_out[6]
*45 uo_out[7]
*46 _000_
*47 _001_
*48 _002_
*49 _003_
*50 _004_
*51 _005_
*52 _006_
*53 _007_
*54 _008_
*55 _009_
*56 _010_
*57 _011_
*58 _012_
*59 _013_
*60 _014_
*61 _015_
*62 _016_
*63 _017_
*64 _018_
*65 _019_
*66 _020_
*67 _021_
*68 _022_
*69 _023_
*70 _024_
*71 _025_
*72 _026_
*73 _027_
*74 _028_
*75 _029_
*76 _030_
*77 _031_
*78 _032_
*79 _033_
*80 _034_
*81 _035_
*82 _036_
*83 _037_
*84 _038_
*85 _039_
*86 _040_
*87 _041_
*88 _042_
*89 _043_
*90 _044_
*91 _045_
*92 _046_
*93 _047_
*94 _048_
*95 _049_
*96 _050_
*97 _051_
*98 _052_
*99 _053_
*100 _054_
*101 _055_
*102 _056_
*103 _057_
*104 _058_
*105 _059_
*106 _060_
*107 _061_
*108 _062_
*109 _063_
*110 _064_
*111 _065_
*112 _066_
*113 _067_
*114 _068_
*115 _069_
*116 _070_
*117 _071_
*118 _072_
*119 _073_
*120 _074_
*121 _075_
*122 _076_
*123 _077_
*124 _078_
*125 _079_
*126 _080_
*127 _081_
*128 _082_
*129 _083_
*130 _084_
*131 _085_
*132 _086_
*133 _087_
*134 _088_
*135 _089_
*136 _090_
*137 _091_
*138 _092_
*139 _093_
*140 _094_
*141 _095_
*142 _096_
*143 _097_
*144 _098_
*145 _099_
*146 _100_
*147 _101_
*148 _102_
*149 _103_
*150 _104_
*151 _105_
*152 _106_
*153 _107_
*154 _108_
*155 _109_
*156 _110_
*157 _111_
*158 _112_
*159 _113_
*160 _114_
*161 _115_
*162 _116_
*163 _117_
*164 _118_
*165 _119_
*166 _120_
*167 _121_
*168 _122_
*169 _123_
*170 _124_
*171 _125_
*172 _126_
*173 _127_
*174 _128_
*175 _129_
*176 _130_
*177 _131_
*178 _132_
*179 _133_
*180 _134_
*181 _135_
*182 _136_
*183 _137_
*184 _138_
*185 _139_
*186 _140_
*187 _141_
*188 _142_
*189 _143_
*190 _144_
*191 _145_
*192 _146_
*193 _147_
*194 _148_
*195 _149_
*196 _150_
*197 _151_
*198 _152_
*199 _153_
*200 _154_
*201 _155_
*202 _156_
*203 _157_
*204 _158_
*205 _159_
*206 _160_
*207 _161_
*208 _162_
*209 _163_
*210 _164_
*211 _165_
*212 _166_
*213 _167_
*214 _168_
*215 _169_
*216 _170_
*217 _171_
*218 _172_
*219 _173_
*220 _174_
*221 _175_
*222 _176_
*223 _177_
*224 _178_
*225 _179_
*226 _180_
*227 _181_
*228 _182_
*229 _183_
*230 _184_
*231 _185_
*232 _186_
*233 _187_
*234 _188_
*235 _189_
*236 _190_
*237 _191_
*238 _192_
*239 _193_
*240 _194_
*241 _195_
*242 _196_
*243 _197_
*244 _198_
*245 _199_
*246 _200_
*247 _201_
*248 _202_
*249 _203_
*250 _204_
*251 _205_
*252 _206_
*253 _207_
*254 _208_
*255 _209_
*256 _210_
*257 _211_
*258 _212_
*259 _213_
*260 _214_
*261 _215_
*262 _216_
*263 _217_
*264 _218_
*265 _219_
*266 _220_
*267 _221_
*268 _222_
*269 _223_
*270 _224_
*271 _225_
*272 _226_
*273 _227_
*274 _228_
*275 _229_
*276 _230_
*277 _231_
*278 _232_
*279 _233_
*280 _234_
*281 _235_
*282 _236_
*283 _237_
*284 _238_
*285 _239_
*286 _240_
*287 _241_
*288 _242_
*289 _243_
*290 _244_
*291 _245_
*292 _246_
*293 _247_
*294 _248_
*295 _249_
*296 _250_
*297 _251_
*298 _252_
*299 _253_
*300 _254_
*301 _255_
*302 clknet_0_clk
*303 clknet_1_0__leaf_clk
*304 clknet_1_1__leaf_clk
*305 enabled_once
*306 last_state\[7\]
*307 neg
*308 net1
*309 net10
*310 net11
*311 net12
*312 net13
*313 net14
*314 net15
*315 net16
*316 net2
*317 net3
*318 net30
*319 net31
*320 net32
*321 net33
*322 net34
*323 net4
*324 net5
*325 net6
*326 net7
*327 net8
*328 net9
*329 overflow
*330 state\[0\]
*331 state\[1\]
*332 state\[2\]
*333 state\[3\]
*334 state\[4\]
*335 state\[5\]
*336 state\[6\]
*337 state\[7\]
*338 zero
*339 FILLER_0_0_109
*340 FILLER_0_0_113
*341 FILLER_0_0_125
*342 FILLER_0_0_137
*343 FILLER_0_0_141
*344 FILLER_0_0_15
*345 FILLER_0_0_153
*346 FILLER_0_0_165
*347 FILLER_0_0_169
*348 FILLER_0_0_181
*349 FILLER_0_0_193
*350 FILLER_0_0_197
*351 FILLER_0_0_209
*352 FILLER_0_0_221
*353 FILLER_0_0_225
*354 FILLER_0_0_237
*355 FILLER_0_0_249
*356 FILLER_0_0_253
*357 FILLER_0_0_265
*358 FILLER_0_0_27
*359 FILLER_0_0_277
*360 FILLER_0_0_281
*361 FILLER_0_0_29
*362 FILLER_0_0_293
*363 FILLER_0_0_3
*364 FILLER_0_0_305
*365 FILLER_0_0_309
*366 FILLER_0_0_321
*367 FILLER_0_0_333
*368 FILLER_0_0_337
*369 FILLER_0_0_349
*370 FILLER_0_0_41
*371 FILLER_0_0_53
*372 FILLER_0_0_57
*373 FILLER_0_0_69
*374 FILLER_0_0_81
*375 FILLER_0_0_85
*376 FILLER_0_0_97
*377 FILLER_0_10_109
*378 FILLER_0_10_121
*379 FILLER_0_10_133
*380 FILLER_0_10_139
*381 FILLER_0_10_141
*382 FILLER_0_10_15
*383 FILLER_0_10_153
*384 FILLER_0_10_165
*385 FILLER_0_10_177
*386 FILLER_0_10_189
*387 FILLER_0_10_195
*388 FILLER_0_10_197
*389 FILLER_0_10_209
*390 FILLER_0_10_221
*391 FILLER_0_10_233
*392 FILLER_0_10_245
*393 FILLER_0_10_251
*394 FILLER_0_10_253
*395 FILLER_0_10_265
*396 FILLER_0_10_27
*397 FILLER_0_10_277
*398 FILLER_0_10_289
*399 FILLER_0_10_29
*400 FILLER_0_10_3
*401 FILLER_0_10_301
*402 FILLER_0_10_307
*403 FILLER_0_10_309
*404 FILLER_0_10_321
*405 FILLER_0_10_333
*406 FILLER_0_10_345
*407 FILLER_0_10_41
*408 FILLER_0_10_53
*409 FILLER_0_10_65
*410 FILLER_0_10_77
*411 FILLER_0_10_83
*412 FILLER_0_10_85
*413 FILLER_0_10_97
*414 FILLER_0_11_105
*415 FILLER_0_11_111
*416 FILLER_0_11_113
*417 FILLER_0_11_125
*418 FILLER_0_11_137
*419 FILLER_0_11_149
*420 FILLER_0_11_15
*421 FILLER_0_11_161
*422 FILLER_0_11_167
*423 FILLER_0_11_169
*424 FILLER_0_11_181
*425 FILLER_0_11_193
*426 FILLER_0_11_205
*427 FILLER_0_11_217
*428 FILLER_0_11_223
*429 FILLER_0_11_225
*430 FILLER_0_11_237
*431 FILLER_0_11_249
*432 FILLER_0_11_261
*433 FILLER_0_11_27
*434 FILLER_0_11_273
*435 FILLER_0_11_279
*436 FILLER_0_11_281
*437 FILLER_0_11_293
*438 FILLER_0_11_3
*439 FILLER_0_11_305
*440 FILLER_0_11_317
*441 FILLER_0_11_329
*442 FILLER_0_11_335
*443 FILLER_0_11_337
*444 FILLER_0_11_349
*445 FILLER_0_11_39
*446 FILLER_0_11_51
*447 FILLER_0_11_55
*448 FILLER_0_11_57
*449 FILLER_0_11_69
*450 FILLER_0_11_81
*451 FILLER_0_11_93
*452 FILLER_0_12_109
*453 FILLER_0_12_121
*454 FILLER_0_12_133
*455 FILLER_0_12_139
*456 FILLER_0_12_141
*457 FILLER_0_12_15
*458 FILLER_0_12_153
*459 FILLER_0_12_165
*460 FILLER_0_12_177
*461 FILLER_0_12_189
*462 FILLER_0_12_195
*463 FILLER_0_12_197
*464 FILLER_0_12_209
*465 FILLER_0_12_221
*466 FILLER_0_12_233
*467 FILLER_0_12_245
*468 FILLER_0_12_251
*469 FILLER_0_12_253
*470 FILLER_0_12_265
*471 FILLER_0_12_27
*472 FILLER_0_12_277
*473 FILLER_0_12_289
*474 FILLER_0_12_29
*475 FILLER_0_12_3
*476 FILLER_0_12_301
*477 FILLER_0_12_307
*478 FILLER_0_12_309
*479 FILLER_0_12_321
*480 FILLER_0_12_333
*481 FILLER_0_12_345
*482 FILLER_0_12_41
*483 FILLER_0_12_53
*484 FILLER_0_12_65
*485 FILLER_0_12_77
*486 FILLER_0_12_83
*487 FILLER_0_12_85
*488 FILLER_0_12_97
*489 FILLER_0_13_105
*490 FILLER_0_13_111
*491 FILLER_0_13_113
*492 FILLER_0_13_125
*493 FILLER_0_13_137
*494 FILLER_0_13_149
*495 FILLER_0_13_15
*496 FILLER_0_13_161
*497 FILLER_0_13_167
*498 FILLER_0_13_169
*499 FILLER_0_13_181
*500 FILLER_0_13_193
*501 FILLER_0_13_205
*502 FILLER_0_13_217
*503 FILLER_0_13_223
*504 FILLER_0_13_225
*505 FILLER_0_13_237
*506 FILLER_0_13_249
*507 FILLER_0_13_261
*508 FILLER_0_13_27
*509 FILLER_0_13_273
*510 FILLER_0_13_279
*511 FILLER_0_13_281
*512 FILLER_0_13_293
*513 FILLER_0_13_3
*514 FILLER_0_13_305
*515 FILLER_0_13_317
*516 FILLER_0_13_329
*517 FILLER_0_13_335
*518 FILLER_0_13_337
*519 FILLER_0_13_349
*520 FILLER_0_13_39
*521 FILLER_0_13_51
*522 FILLER_0_13_55
*523 FILLER_0_13_57
*524 FILLER_0_13_69
*525 FILLER_0_13_81
*526 FILLER_0_13_93
*527 FILLER_0_14_109
*528 FILLER_0_14_121
*529 FILLER_0_14_133
*530 FILLER_0_14_139
*531 FILLER_0_14_141
*532 FILLER_0_14_15
*533 FILLER_0_14_153
*534 FILLER_0_14_165
*535 FILLER_0_14_177
*536 FILLER_0_14_189
*537 FILLER_0_14_195
*538 FILLER_0_14_197
*539 FILLER_0_14_209
*540 FILLER_0_14_221
*541 FILLER_0_14_233
*542 FILLER_0_14_245
*543 FILLER_0_14_251
*544 FILLER_0_14_253
*545 FILLER_0_14_265
*546 FILLER_0_14_27
*547 FILLER_0_14_277
*548 FILLER_0_14_289
*549 FILLER_0_14_29
*550 FILLER_0_14_3
*551 FILLER_0_14_301
*552 FILLER_0_14_307
*553 FILLER_0_14_309
*554 FILLER_0_14_321
*555 FILLER_0_14_333
*556 FILLER_0_14_345
*557 FILLER_0_14_41
*558 FILLER_0_14_53
*559 FILLER_0_14_65
*560 FILLER_0_14_77
*561 FILLER_0_14_83
*562 FILLER_0_14_85
*563 FILLER_0_14_97
*564 FILLER_0_15_105
*565 FILLER_0_15_111
*566 FILLER_0_15_113
*567 FILLER_0_15_125
*568 FILLER_0_15_137
*569 FILLER_0_15_149
*570 FILLER_0_15_15
*571 FILLER_0_15_161
*572 FILLER_0_15_167
*573 FILLER_0_15_169
*574 FILLER_0_15_181
*575 FILLER_0_15_193
*576 FILLER_0_15_205
*577 FILLER_0_15_217
*578 FILLER_0_15_223
*579 FILLER_0_15_225
*580 FILLER_0_15_237
*581 FILLER_0_15_249
*582 FILLER_0_15_261
*583 FILLER_0_15_27
*584 FILLER_0_15_273
*585 FILLER_0_15_279
*586 FILLER_0_15_281
*587 FILLER_0_15_293
*588 FILLER_0_15_3
*589 FILLER_0_15_305
*590 FILLER_0_15_317
*591 FILLER_0_15_329
*592 FILLER_0_15_335
*593 FILLER_0_15_337
*594 FILLER_0_15_349
*595 FILLER_0_15_39
*596 FILLER_0_15_51
*597 FILLER_0_15_55
*598 FILLER_0_15_57
*599 FILLER_0_15_69
*600 FILLER_0_15_81
*601 FILLER_0_15_93
*602 FILLER_0_16_109
*603 FILLER_0_16_121
*604 FILLER_0_16_133
*605 FILLER_0_16_139
*606 FILLER_0_16_141
*607 FILLER_0_16_15
*608 FILLER_0_16_153
*609 FILLER_0_16_165
*610 FILLER_0_16_177
*611 FILLER_0_16_189
*612 FILLER_0_16_195
*613 FILLER_0_16_197
*614 FILLER_0_16_209
*615 FILLER_0_16_221
*616 FILLER_0_16_233
*617 FILLER_0_16_245
*618 FILLER_0_16_251
*619 FILLER_0_16_253
*620 FILLER_0_16_265
*621 FILLER_0_16_27
*622 FILLER_0_16_277
*623 FILLER_0_16_289
*624 FILLER_0_16_29
*625 FILLER_0_16_3
*626 FILLER_0_16_301
*627 FILLER_0_16_307
*628 FILLER_0_16_309
*629 FILLER_0_16_321
*630 FILLER_0_16_333
*631 FILLER_0_16_345
*632 FILLER_0_16_41
*633 FILLER_0_16_53
*634 FILLER_0_16_65
*635 FILLER_0_16_77
*636 FILLER_0_16_83
*637 FILLER_0_16_85
*638 FILLER_0_16_97
*639 FILLER_0_17_105
*640 FILLER_0_17_111
*641 FILLER_0_17_113
*642 FILLER_0_17_125
*643 FILLER_0_17_137
*644 FILLER_0_17_149
*645 FILLER_0_17_15
*646 FILLER_0_17_161
*647 FILLER_0_17_167
*648 FILLER_0_17_169
*649 FILLER_0_17_181
*650 FILLER_0_17_193
*651 FILLER_0_17_205
*652 FILLER_0_17_217
*653 FILLER_0_17_223
*654 FILLER_0_17_225
*655 FILLER_0_17_237
*656 FILLER_0_17_249
*657 FILLER_0_17_261
*658 FILLER_0_17_27
*659 FILLER_0_17_273
*660 FILLER_0_17_279
*661 FILLER_0_17_281
*662 FILLER_0_17_293
*663 FILLER_0_17_3
*664 FILLER_0_17_305
*665 FILLER_0_17_317
*666 FILLER_0_17_329
*667 FILLER_0_17_335
*668 FILLER_0_17_337
*669 FILLER_0_17_349
*670 FILLER_0_17_39
*671 FILLER_0_17_51
*672 FILLER_0_17_55
*673 FILLER_0_17_57
*674 FILLER_0_17_69
*675 FILLER_0_17_81
*676 FILLER_0_17_93
*677 FILLER_0_18_109
*678 FILLER_0_18_121
*679 FILLER_0_18_133
*680 FILLER_0_18_139
*681 FILLER_0_18_141
*682 FILLER_0_18_15
*683 FILLER_0_18_153
*684 FILLER_0_18_165
*685 FILLER_0_18_177
*686 FILLER_0_18_189
*687 FILLER_0_18_195
*688 FILLER_0_18_197
*689 FILLER_0_18_209
*690 FILLER_0_18_221
*691 FILLER_0_18_233
*692 FILLER_0_18_245
*693 FILLER_0_18_251
*694 FILLER_0_18_253
*695 FILLER_0_18_265
*696 FILLER_0_18_27
*697 FILLER_0_18_277
*698 FILLER_0_18_289
*699 FILLER_0_18_29
*700 FILLER_0_18_3
*701 FILLER_0_18_301
*702 FILLER_0_18_307
*703 FILLER_0_18_309
*704 FILLER_0_18_321
*705 FILLER_0_18_333
*706 FILLER_0_18_345
*707 FILLER_0_18_41
*708 FILLER_0_18_53
*709 FILLER_0_18_65
*710 FILLER_0_18_77
*711 FILLER_0_18_83
*712 FILLER_0_18_85
*713 FILLER_0_18_97
*714 FILLER_0_19_105
*715 FILLER_0_19_111
*716 FILLER_0_19_113
*717 FILLER_0_19_125
*718 FILLER_0_19_137
*719 FILLER_0_19_149
*720 FILLER_0_19_15
*721 FILLER_0_19_161
*722 FILLER_0_19_167
*723 FILLER_0_19_169
*724 FILLER_0_19_181
*725 FILLER_0_19_193
*726 FILLER_0_19_205
*727 FILLER_0_19_217
*728 FILLER_0_19_223
*729 FILLER_0_19_225
*730 FILLER_0_19_237
*731 FILLER_0_19_249
*732 FILLER_0_19_261
*733 FILLER_0_19_27
*734 FILLER_0_19_273
*735 FILLER_0_19_279
*736 FILLER_0_19_281
*737 FILLER_0_19_293
*738 FILLER_0_19_3
*739 FILLER_0_19_305
*740 FILLER_0_19_317
*741 FILLER_0_19_329
*742 FILLER_0_19_335
*743 FILLER_0_19_337
*744 FILLER_0_19_349
*745 FILLER_0_19_39
*746 FILLER_0_19_51
*747 FILLER_0_19_55
*748 FILLER_0_19_57
*749 FILLER_0_19_69
*750 FILLER_0_19_81
*751 FILLER_0_19_93
*752 FILLER_0_1_105
*753 FILLER_0_1_111
*754 FILLER_0_1_113
*755 FILLER_0_1_125
*756 FILLER_0_1_137
*757 FILLER_0_1_149
*758 FILLER_0_1_15
*759 FILLER_0_1_161
*760 FILLER_0_1_167
*761 FILLER_0_1_169
*762 FILLER_0_1_181
*763 FILLER_0_1_193
*764 FILLER_0_1_205
*765 FILLER_0_1_217
*766 FILLER_0_1_223
*767 FILLER_0_1_225
*768 FILLER_0_1_237
*769 FILLER_0_1_249
*770 FILLER_0_1_261
*771 FILLER_0_1_27
*772 FILLER_0_1_273
*773 FILLER_0_1_279
*774 FILLER_0_1_281
*775 FILLER_0_1_293
*776 FILLER_0_1_3
*777 FILLER_0_1_305
*778 FILLER_0_1_317
*779 FILLER_0_1_329
*780 FILLER_0_1_335
*781 FILLER_0_1_337
*782 FILLER_0_1_349
*783 FILLER_0_1_39
*784 FILLER_0_1_51
*785 FILLER_0_1_55
*786 FILLER_0_1_57
*787 FILLER_0_1_69
*788 FILLER_0_1_81
*789 FILLER_0_1_93
*790 FILLER_0_20_109
*791 FILLER_0_20_121
*792 FILLER_0_20_133
*793 FILLER_0_20_139
*794 FILLER_0_20_141
*795 FILLER_0_20_15
*796 FILLER_0_20_153
*797 FILLER_0_20_165
*798 FILLER_0_20_177
*799 FILLER_0_20_189
*800 FILLER_0_20_195
*801 FILLER_0_20_197
*802 FILLER_0_20_209
*803 FILLER_0_20_221
*804 FILLER_0_20_233
*805 FILLER_0_20_245
*806 FILLER_0_20_251
*807 FILLER_0_20_253
*808 FILLER_0_20_265
*809 FILLER_0_20_27
*810 FILLER_0_20_277
*811 FILLER_0_20_289
*812 FILLER_0_20_29
*813 FILLER_0_20_3
*814 FILLER_0_20_301
*815 FILLER_0_20_307
*816 FILLER_0_20_309
*817 FILLER_0_20_321
*818 FILLER_0_20_333
*819 FILLER_0_20_345
*820 FILLER_0_20_41
*821 FILLER_0_20_53
*822 FILLER_0_20_65
*823 FILLER_0_20_77
*824 FILLER_0_20_83
*825 FILLER_0_20_85
*826 FILLER_0_20_97
*827 FILLER_0_21_105
*828 FILLER_0_21_111
*829 FILLER_0_21_113
*830 FILLER_0_21_125
*831 FILLER_0_21_137
*832 FILLER_0_21_149
*833 FILLER_0_21_15
*834 FILLER_0_21_161
*835 FILLER_0_21_167
*836 FILLER_0_21_169
*837 FILLER_0_21_181
*838 FILLER_0_21_193
*839 FILLER_0_21_205
*840 FILLER_0_21_217
*841 FILLER_0_21_223
*842 FILLER_0_21_225
*843 FILLER_0_21_237
*844 FILLER_0_21_249
*845 FILLER_0_21_261
*846 FILLER_0_21_27
*847 FILLER_0_21_273
*848 FILLER_0_21_279
*849 FILLER_0_21_281
*850 FILLER_0_21_293
*851 FILLER_0_21_3
*852 FILLER_0_21_305
*853 FILLER_0_21_317
*854 FILLER_0_21_329
*855 FILLER_0_21_335
*856 FILLER_0_21_337
*857 FILLER_0_21_349
*858 FILLER_0_21_39
*859 FILLER_0_21_51
*860 FILLER_0_21_55
*861 FILLER_0_21_57
*862 FILLER_0_21_69
*863 FILLER_0_21_81
*864 FILLER_0_21_93
*865 FILLER_0_22_109
*866 FILLER_0_22_121
*867 FILLER_0_22_133
*868 FILLER_0_22_139
*869 FILLER_0_22_141
*870 FILLER_0_22_15
*871 FILLER_0_22_153
*872 FILLER_0_22_165
*873 FILLER_0_22_177
*874 FILLER_0_22_189
*875 FILLER_0_22_195
*876 FILLER_0_22_197
*877 FILLER_0_22_209
*878 FILLER_0_22_221
*879 FILLER_0_22_233
*880 FILLER_0_22_245
*881 FILLER_0_22_251
*882 FILLER_0_22_253
*883 FILLER_0_22_265
*884 FILLER_0_22_27
*885 FILLER_0_22_277
*886 FILLER_0_22_289
*887 FILLER_0_22_29
*888 FILLER_0_22_3
*889 FILLER_0_22_301
*890 FILLER_0_22_307
*891 FILLER_0_22_309
*892 FILLER_0_22_321
*893 FILLER_0_22_333
*894 FILLER_0_22_345
*895 FILLER_0_22_41
*896 FILLER_0_22_53
*897 FILLER_0_22_65
*898 FILLER_0_22_77
*899 FILLER_0_22_83
*900 FILLER_0_22_85
*901 FILLER_0_22_97
*902 FILLER_0_23_105
*903 FILLER_0_23_111
*904 FILLER_0_23_113
*905 FILLER_0_23_125
*906 FILLER_0_23_137
*907 FILLER_0_23_149
*908 FILLER_0_23_15
*909 FILLER_0_23_161
*910 FILLER_0_23_167
*911 FILLER_0_23_169
*912 FILLER_0_23_181
*913 FILLER_0_23_193
*914 FILLER_0_23_205
*915 FILLER_0_23_217
*916 FILLER_0_23_223
*917 FILLER_0_23_225
*918 FILLER_0_23_237
*919 FILLER_0_23_243
*920 FILLER_0_23_249
*921 FILLER_0_23_257
*922 FILLER_0_23_269
*923 FILLER_0_23_27
*924 FILLER_0_23_281
*925 FILLER_0_23_293
*926 FILLER_0_23_3
*927 FILLER_0_23_305
*928 FILLER_0_23_317
*929 FILLER_0_23_329
*930 FILLER_0_23_335
*931 FILLER_0_23_337
*932 FILLER_0_23_349
*933 FILLER_0_23_39
*934 FILLER_0_23_51
*935 FILLER_0_23_55
*936 FILLER_0_23_57
*937 FILLER_0_23_69
*938 FILLER_0_23_81
*939 FILLER_0_23_93
*940 FILLER_0_24_109
*941 FILLER_0_24_121
*942 FILLER_0_24_133
*943 FILLER_0_24_139
*944 FILLER_0_24_141
*945 FILLER_0_24_15
*946 FILLER_0_24_156
*947 FILLER_0_24_168
*948 FILLER_0_24_193
*949 FILLER_0_24_197
*950 FILLER_0_24_205
*951 FILLER_0_24_213
*952 FILLER_0_24_224
*953 FILLER_0_24_228
*954 FILLER_0_24_233
*955 FILLER_0_24_237
*956 FILLER_0_24_249
*957 FILLER_0_24_253
*958 FILLER_0_24_27
*959 FILLER_0_24_29
*960 FILLER_0_24_3
*961 FILLER_0_24_304
*962 FILLER_0_24_314
*963 FILLER_0_24_326
*964 FILLER_0_24_338
*965 FILLER_0_24_350
*966 FILLER_0_24_41
*967 FILLER_0_24_53
*968 FILLER_0_24_65
*969 FILLER_0_24_77
*970 FILLER_0_24_83
*971 FILLER_0_24_85
*972 FILLER_0_24_97
*973 FILLER_0_25_105
*974 FILLER_0_25_111
*975 FILLER_0_25_113
*976 FILLER_0_25_125
*977 FILLER_0_25_137
*978 FILLER_0_25_145
*979 FILLER_0_25_15
*980 FILLER_0_25_169
*981 FILLER_0_25_184
*982 FILLER_0_25_192
*983 FILLER_0_25_206
*984 FILLER_0_25_214
*985 FILLER_0_25_222
*986 FILLER_0_25_231
*987 FILLER_0_25_239
*988 FILLER_0_25_248
*989 FILLER_0_25_260
*990 FILLER_0_25_27
*991 FILLER_0_25_271
*992 FILLER_0_25_279
*993 FILLER_0_25_281
*994 FILLER_0_25_293
*995 FILLER_0_25_3
*996 FILLER_0_25_302
*997 FILLER_0_25_308
*998 FILLER_0_25_317
*999 FILLER_0_25_329
*1000 FILLER_0_25_335
*1001 FILLER_0_25_337
*1002 FILLER_0_25_349
*1003 FILLER_0_25_39
*1004 FILLER_0_25_51
*1005 FILLER_0_25_55
*1006 FILLER_0_25_57
*1007 FILLER_0_25_69
*1008 FILLER_0_25_81
*1009 FILLER_0_25_93
*1010 FILLER_0_26_109
*1011 FILLER_0_26_121
*1012 FILLER_0_26_133
*1013 FILLER_0_26_139
*1014 FILLER_0_26_141
*1015 FILLER_0_26_15
*1016 FILLER_0_26_153
*1017 FILLER_0_26_157
*1018 FILLER_0_26_167
*1019 FILLER_0_26_174
*1020 FILLER_0_26_182
*1021 FILLER_0_26_194
*1022 FILLER_0_26_197
*1023 FILLER_0_26_211
*1024 FILLER_0_26_220
*1025 FILLER_0_26_226
*1026 FILLER_0_26_238
*1027 FILLER_0_26_247
*1028 FILLER_0_26_251
*1029 FILLER_0_26_253
*1030 FILLER_0_26_27
*1031 FILLER_0_26_276
*1032 FILLER_0_26_286
*1033 FILLER_0_26_29
*1034 FILLER_0_26_3
*1035 FILLER_0_26_302
*1036 FILLER_0_26_317
*1037 FILLER_0_26_344
*1038 FILLER_0_26_350
*1039 FILLER_0_26_41
*1040 FILLER_0_26_53
*1041 FILLER_0_26_65
*1042 FILLER_0_26_77
*1043 FILLER_0_26_83
*1044 FILLER_0_26_85
*1045 FILLER_0_26_97
*1046 FILLER_0_27_105
*1047 FILLER_0_27_111
*1048 FILLER_0_27_113
*1049 FILLER_0_27_125
*1050 FILLER_0_27_131
*1051 FILLER_0_27_15
*1052 FILLER_0_27_158
*1053 FILLER_0_27_162
*1054 FILLER_0_27_166
*1055 FILLER_0_27_174
*1056 FILLER_0_27_178
*1057 FILLER_0_27_186
*1058 FILLER_0_27_198
*1059 FILLER_0_27_206
*1060 FILLER_0_27_222
*1061 FILLER_0_27_239
*1062 FILLER_0_27_249
*1063 FILLER_0_27_266
*1064 FILLER_0_27_27
*1065 FILLER_0_27_278
*1066 FILLER_0_27_281
*1067 FILLER_0_27_291
*1068 FILLER_0_27_3
*1069 FILLER_0_27_303
*1070 FILLER_0_27_308
*1071 FILLER_0_27_323
*1072 FILLER_0_27_335
*1073 FILLER_0_27_343
*1074 FILLER_0_27_39
*1075 FILLER_0_27_51
*1076 FILLER_0_27_55
*1077 FILLER_0_27_57
*1078 FILLER_0_27_69
*1079 FILLER_0_27_81
*1080 FILLER_0_27_93
*1081 FILLER_0_28_109
*1082 FILLER_0_28_121
*1083 FILLER_0_28_133
*1084 FILLER_0_28_139
*1085 FILLER_0_28_15
*1086 FILLER_0_28_156
*1087 FILLER_0_28_170
*1088 FILLER_0_28_182
*1089 FILLER_0_28_191
*1090 FILLER_0_28_195
*1091 FILLER_0_28_197
*1092 FILLER_0_28_209
*1093 FILLER_0_28_221
*1094 FILLER_0_28_228
*1095 FILLER_0_28_234
*1096 FILLER_0_28_242
*1097 FILLER_0_28_250
*1098 FILLER_0_28_253
*1099 FILLER_0_28_268
*1100 FILLER_0_28_27
*1101 FILLER_0_28_279
*1102 FILLER_0_28_287
*1103 FILLER_0_28_29
*1104 FILLER_0_28_293
*1105 FILLER_0_28_3
*1106 FILLER_0_28_306
*1107 FILLER_0_28_324
*1108 FILLER_0_28_328
*1109 FILLER_0_28_41
*1110 FILLER_0_28_53
*1111 FILLER_0_28_65
*1112 FILLER_0_28_77
*1113 FILLER_0_28_83
*1114 FILLER_0_28_85
*1115 FILLER_0_28_97
*1116 FILLER_0_29_105
*1117 FILLER_0_29_111
*1118 FILLER_0_29_113
*1119 FILLER_0_29_119
*1120 FILLER_0_29_131
*1121 FILLER_0_29_139
*1122 FILLER_0_29_15
*1123 FILLER_0_29_162
*1124 FILLER_0_29_189
*1125 FILLER_0_29_197
*1126 FILLER_0_29_219
*1127 FILLER_0_29_223
*1128 FILLER_0_29_225
*1129 FILLER_0_29_241
*1130 FILLER_0_29_245
*1131 FILLER_0_29_254
*1132 FILLER_0_29_27
*1133 FILLER_0_29_295
*1134 FILLER_0_29_3
*1135 FILLER_0_29_302
*1136 FILLER_0_29_314
*1137 FILLER_0_29_330
*1138 FILLER_0_29_344
*1139 FILLER_0_29_350
*1140 FILLER_0_29_39
*1141 FILLER_0_29_51
*1142 FILLER_0_29_55
*1143 FILLER_0_29_57
*1144 FILLER_0_29_69
*1145 FILLER_0_29_81
*1146 FILLER_0_29_93
*1147 FILLER_0_2_109
*1148 FILLER_0_2_121
*1149 FILLER_0_2_133
*1150 FILLER_0_2_139
*1151 FILLER_0_2_141
*1152 FILLER_0_2_15
*1153 FILLER_0_2_153
*1154 FILLER_0_2_165
*1155 FILLER_0_2_177
*1156 FILLER_0_2_189
*1157 FILLER_0_2_195
*1158 FILLER_0_2_197
*1159 FILLER_0_2_209
*1160 FILLER_0_2_221
*1161 FILLER_0_2_233
*1162 FILLER_0_2_245
*1163 FILLER_0_2_251
*1164 FILLER_0_2_253
*1165 FILLER_0_2_265
*1166 FILLER_0_2_27
*1167 FILLER_0_2_277
*1168 FILLER_0_2_289
*1169 FILLER_0_2_29
*1170 FILLER_0_2_3
*1171 FILLER_0_2_301
*1172 FILLER_0_2_307
*1173 FILLER_0_2_309
*1174 FILLER_0_2_321
*1175 FILLER_0_2_333
*1176 FILLER_0_2_345
*1177 FILLER_0_2_41
*1178 FILLER_0_2_53
*1179 FILLER_0_2_65
*1180 FILLER_0_2_77
*1181 FILLER_0_2_83
*1182 FILLER_0_2_85
*1183 FILLER_0_2_97
*1184 FILLER_0_30_124
*1185 FILLER_0_30_141
*1186 FILLER_0_30_15
*1187 FILLER_0_30_150
*1188 FILLER_0_30_156
*1189 FILLER_0_30_168
*1190 FILLER_0_30_184
*1191 FILLER_0_30_191
*1192 FILLER_0_30_195
*1193 FILLER_0_30_205
*1194 FILLER_0_30_231
*1195 FILLER_0_30_235
*1196 FILLER_0_30_239
*1197 FILLER_0_30_251
*1198 FILLER_0_30_253
*1199 FILLER_0_30_264
*1200 FILLER_0_30_268
*1201 FILLER_0_30_27
*1202 FILLER_0_30_277
*1203 FILLER_0_30_29
*1204 FILLER_0_30_299
*1205 FILLER_0_30_3
*1206 FILLER_0_30_307
*1207 FILLER_0_30_317
*1208 FILLER_0_30_329
*1209 FILLER_0_30_341
*1210 FILLER_0_30_349
*1211 FILLER_0_30_41
*1212 FILLER_0_30_53
*1213 FILLER_0_30_65
*1214 FILLER_0_30_77
*1215 FILLER_0_30_83
*1216 FILLER_0_30_85
*1217 FILLER_0_30_97
*1218 FILLER_0_31_105
*1219 FILLER_0_31_111
*1220 FILLER_0_31_113
*1221 FILLER_0_31_121
*1222 FILLER_0_31_136
*1223 FILLER_0_31_144
*1224 FILLER_0_31_15
*1225 FILLER_0_31_166
*1226 FILLER_0_31_175
*1227 FILLER_0_31_181
*1228 FILLER_0_31_189
*1229 FILLER_0_31_195
*1230 FILLER_0_31_209
*1231 FILLER_0_31_225
*1232 FILLER_0_31_233
*1233 FILLER_0_31_244
*1234 FILLER_0_31_265
*1235 FILLER_0_31_27
*1236 FILLER_0_31_277
*1237 FILLER_0_31_288
*1238 FILLER_0_31_296
*1239 FILLER_0_31_3
*1240 FILLER_0_31_312
*1241 FILLER_0_31_335
*1242 FILLER_0_31_337
*1243 FILLER_0_31_346
*1244 FILLER_0_31_350
*1245 FILLER_0_31_39
*1246 FILLER_0_31_51
*1247 FILLER_0_31_55
*1248 FILLER_0_31_57
*1249 FILLER_0_31_69
*1250 FILLER_0_31_81
*1251 FILLER_0_31_93
*1252 FILLER_0_32_105
*1253 FILLER_0_32_109
*1254 FILLER_0_32_121
*1255 FILLER_0_32_125
*1256 FILLER_0_32_135
*1257 FILLER_0_32_139
*1258 FILLER_0_32_15
*1259 FILLER_0_32_151
*1260 FILLER_0_32_169
*1261 FILLER_0_32_173
*1262 FILLER_0_32_191
*1263 FILLER_0_32_195
*1264 FILLER_0_32_204
*1265 FILLER_0_32_212
*1266 FILLER_0_32_232
*1267 FILLER_0_32_251
*1268 FILLER_0_32_253
*1269 FILLER_0_32_258
*1270 FILLER_0_32_264
*1271 FILLER_0_32_268
*1272 FILLER_0_32_27
*1273 FILLER_0_32_276
*1274 FILLER_0_32_288
*1275 FILLER_0_32_29
*1276 FILLER_0_32_3
*1277 FILLER_0_32_300
*1278 FILLER_0_32_318
*1279 FILLER_0_32_330
*1280 FILLER_0_32_342
*1281 FILLER_0_32_350
*1282 FILLER_0_32_41
*1283 FILLER_0_32_53
*1284 FILLER_0_32_65
*1285 FILLER_0_32_77
*1286 FILLER_0_32_83
*1287 FILLER_0_32_85
*1288 FILLER_0_32_97
*1289 FILLER_0_33_100
*1290 FILLER_0_33_133
*1291 FILLER_0_33_141
*1292 FILLER_0_33_149
*1293 FILLER_0_33_15
*1294 FILLER_0_33_169
*1295 FILLER_0_33_181
*1296 FILLER_0_33_194
*1297 FILLER_0_33_215
*1298 FILLER_0_33_223
*1299 FILLER_0_33_225
*1300 FILLER_0_33_237
*1301 FILLER_0_33_249
*1302 FILLER_0_33_253
*1303 FILLER_0_33_257
*1304 FILLER_0_33_269
*1305 FILLER_0_33_27
*1306 FILLER_0_33_281
*1307 FILLER_0_33_287
*1308 FILLER_0_33_292
*1309 FILLER_0_33_3
*1310 FILLER_0_33_301
*1311 FILLER_0_33_313
*1312 FILLER_0_33_317
*1313 FILLER_0_33_325
*1314 FILLER_0_33_333
*1315 FILLER_0_33_39
*1316 FILLER_0_33_51
*1317 FILLER_0_33_55
*1318 FILLER_0_33_57
*1319 FILLER_0_33_69
*1320 FILLER_0_33_81
*1321 FILLER_0_33_93
*1322 FILLER_0_34_110
*1323 FILLER_0_34_135
*1324 FILLER_0_34_139
*1325 FILLER_0_34_149
*1326 FILLER_0_34_15
*1327 FILLER_0_34_156
*1328 FILLER_0_34_165
*1329 FILLER_0_34_171
*1330 FILLER_0_34_187
*1331 FILLER_0_34_202
*1332 FILLER_0_34_235
*1333 FILLER_0_34_241
*1334 FILLER_0_34_248
*1335 FILLER_0_34_264
*1336 FILLER_0_34_27
*1337 FILLER_0_34_276
*1338 FILLER_0_34_284
*1339 FILLER_0_34_29
*1340 FILLER_0_34_299
*1341 FILLER_0_34_3
*1342 FILLER_0_34_303
*1343 FILLER_0_34_333
*1344 FILLER_0_34_345
*1345 FILLER_0_34_41
*1346 FILLER_0_34_53
*1347 FILLER_0_34_65
*1348 FILLER_0_34_77
*1349 FILLER_0_34_83
*1350 FILLER_0_34_85
*1351 FILLER_0_34_93
*1352 FILLER_0_35_113
*1353 FILLER_0_35_135
*1354 FILLER_0_35_139
*1355 FILLER_0_35_15
*1356 FILLER_0_35_160
*1357 FILLER_0_35_169
*1358 FILLER_0_35_177
*1359 FILLER_0_35_184
*1360 FILLER_0_35_196
*1361 FILLER_0_35_200
*1362 FILLER_0_35_223
*1363 FILLER_0_35_225
*1364 FILLER_0_35_237
*1365 FILLER_0_35_245
*1366 FILLER_0_35_258
*1367 FILLER_0_35_264
*1368 FILLER_0_35_27
*1369 FILLER_0_35_281
*1370 FILLER_0_35_293
*1371 FILLER_0_35_3
*1372 FILLER_0_35_305
*1373 FILLER_0_35_317
*1374 FILLER_0_35_327
*1375 FILLER_0_35_350
*1376 FILLER_0_35_39
*1377 FILLER_0_35_51
*1378 FILLER_0_35_55
*1379 FILLER_0_35_57
*1380 FILLER_0_35_69
*1381 FILLER_0_35_81
*1382 FILLER_0_35_89
*1383 FILLER_0_36_128
*1384 FILLER_0_36_137
*1385 FILLER_0_36_15
*1386 FILLER_0_36_161
*1387 FILLER_0_36_175
*1388 FILLER_0_36_180
*1389 FILLER_0_36_192
*1390 FILLER_0_36_197
*1391 FILLER_0_36_230
*1392 FILLER_0_36_250
*1393 FILLER_0_36_262
*1394 FILLER_0_36_267
*1395 FILLER_0_36_27
*1396 FILLER_0_36_274
*1397 FILLER_0_36_278
*1398 FILLER_0_36_29
*1399 FILLER_0_36_293
*1400 FILLER_0_36_3
*1401 FILLER_0_36_318
*1402 FILLER_0_36_323
*1403 FILLER_0_36_327
*1404 FILLER_0_36_41
*1405 FILLER_0_36_53
*1406 FILLER_0_36_65
*1407 FILLER_0_36_77
*1408 FILLER_0_36_83
*1409 FILLER_0_36_85
*1410 FILLER_0_36_97
*1411 FILLER_0_37_101
*1412 FILLER_0_37_105
*1413 FILLER_0_37_111
*1414 FILLER_0_37_113
*1415 FILLER_0_37_129
*1416 FILLER_0_37_137
*1417 FILLER_0_37_144
*1418 FILLER_0_37_15
*1419 FILLER_0_37_166
*1420 FILLER_0_37_174
*1421 FILLER_0_37_181
*1422 FILLER_0_37_187
*1423 FILLER_0_37_202
*1424 FILLER_0_37_214
*1425 FILLER_0_37_222
*1426 FILLER_0_37_225
*1427 FILLER_0_37_237
*1428 FILLER_0_37_244
*1429 FILLER_0_37_250
*1430 FILLER_0_37_266
*1431 FILLER_0_37_27
*1432 FILLER_0_37_3
*1433 FILLER_0_37_307
*1434 FILLER_0_37_335
*1435 FILLER_0_37_337
*1436 FILLER_0_37_349
*1437 FILLER_0_37_39
*1438 FILLER_0_37_51
*1439 FILLER_0_37_55
*1440 FILLER_0_37_57
*1441 FILLER_0_37_69
*1442 FILLER_0_37_81
*1443 FILLER_0_37_93
*1444 FILLER_0_38_104
*1445 FILLER_0_38_110
*1446 FILLER_0_38_123
*1447 FILLER_0_38_129
*1448 FILLER_0_38_134
*1449 FILLER_0_38_141
*1450 FILLER_0_38_146
*1451 FILLER_0_38_15
*1452 FILLER_0_38_152
*1453 FILLER_0_38_158
*1454 FILLER_0_38_166
*1455 FILLER_0_38_173
*1456 FILLER_0_38_180
*1457 FILLER_0_38_185
*1458 FILLER_0_38_193
*1459 FILLER_0_38_222
*1460 FILLER_0_38_249
*1461 FILLER_0_38_261
*1462 FILLER_0_38_268
*1463 FILLER_0_38_27
*1464 FILLER_0_38_273
*1465 FILLER_0_38_279
*1466 FILLER_0_38_285
*1467 FILLER_0_38_29
*1468 FILLER_0_38_3
*1469 FILLER_0_38_306
*1470 FILLER_0_38_313
*1471 FILLER_0_38_343
*1472 FILLER_0_38_41
*1473 FILLER_0_38_53
*1474 FILLER_0_38_57
*1475 FILLER_0_38_68
*1476 FILLER_0_38_74
*1477 FILLER_0_38_80
*1478 FILLER_0_38_88
*1479 FILLER_0_38_92
*1480 FILLER_0_38_98
*1481 FILLER_0_3_105
*1482 FILLER_0_3_111
*1483 FILLER_0_3_113
*1484 FILLER_0_3_125
*1485 FILLER_0_3_137
*1486 FILLER_0_3_149
*1487 FILLER_0_3_15
*1488 FILLER_0_3_161
*1489 FILLER_0_3_167
*1490 FILLER_0_3_169
*1491 FILLER_0_3_181
*1492 FILLER_0_3_193
*1493 FILLER_0_3_205
*1494 FILLER_0_3_217
*1495 FILLER_0_3_223
*1496 FILLER_0_3_225
*1497 FILLER_0_3_237
*1498 FILLER_0_3_249
*1499 FILLER_0_3_261
*1500 FILLER_0_3_27
*1501 FILLER_0_3_273
*1502 FILLER_0_3_279
*1503 FILLER_0_3_281
*1504 FILLER_0_3_293
*1505 FILLER_0_3_3
*1506 FILLER_0_3_305
*1507 FILLER_0_3_317
*1508 FILLER_0_3_329
*1509 FILLER_0_3_335
*1510 FILLER_0_3_337
*1511 FILLER_0_3_349
*1512 FILLER_0_3_39
*1513 FILLER_0_3_51
*1514 FILLER_0_3_55
*1515 FILLER_0_3_57
*1516 FILLER_0_3_69
*1517 FILLER_0_3_81
*1518 FILLER_0_3_93
*1519 FILLER_0_4_109
*1520 FILLER_0_4_121
*1521 FILLER_0_4_133
*1522 FILLER_0_4_139
*1523 FILLER_0_4_141
*1524 FILLER_0_4_15
*1525 FILLER_0_4_153
*1526 FILLER_0_4_165
*1527 FILLER_0_4_177
*1528 FILLER_0_4_189
*1529 FILLER_0_4_195
*1530 FILLER_0_4_197
*1531 FILLER_0_4_209
*1532 FILLER_0_4_221
*1533 FILLER_0_4_233
*1534 FILLER_0_4_245
*1535 FILLER_0_4_251
*1536 FILLER_0_4_253
*1537 FILLER_0_4_265
*1538 FILLER_0_4_27
*1539 FILLER_0_4_277
*1540 FILLER_0_4_289
*1541 FILLER_0_4_29
*1542 FILLER_0_4_3
*1543 FILLER_0_4_301
*1544 FILLER_0_4_307
*1545 FILLER_0_4_309
*1546 FILLER_0_4_321
*1547 FILLER_0_4_333
*1548 FILLER_0_4_345
*1549 FILLER_0_4_41
*1550 FILLER_0_4_53
*1551 FILLER_0_4_65
*1552 FILLER_0_4_77
*1553 FILLER_0_4_83
*1554 FILLER_0_4_85
*1555 FILLER_0_4_97
*1556 FILLER_0_5_105
*1557 FILLER_0_5_111
*1558 FILLER_0_5_113
*1559 FILLER_0_5_125
*1560 FILLER_0_5_137
*1561 FILLER_0_5_149
*1562 FILLER_0_5_15
*1563 FILLER_0_5_161
*1564 FILLER_0_5_167
*1565 FILLER_0_5_169
*1566 FILLER_0_5_181
*1567 FILLER_0_5_193
*1568 FILLER_0_5_205
*1569 FILLER_0_5_217
*1570 FILLER_0_5_223
*1571 FILLER_0_5_225
*1572 FILLER_0_5_237