*SPEF "ieee 1481-1999"
*DESIGN "tt_um_multiplexed_clock"
*DATE "11:11:11 Fri 11 11, 1111"
*VENDOR "OpenRCX"
*PROGRAM "Parallel Extraction"
*VERSION "1.0"
*DESIGN_FLOW "NAME_SCOPE LOCAL" "PIN_CAP NONE"
*DIVIDER /
*DELIMITER :
*BUS_DELIMITER []
*T_UNIT 1 NS
*C_UNIT 1 PF
*R_UNIT 1 OHM
*L_UNIT 1 HENRY

*NAME_MAP
*3 clk
*4 ena
*5 rst_n
*6 ui_in[0]
*7 ui_in[1]
*8 ui_in[2]
*9 ui_in[3]
*10 ui_in[4]
*11 ui_in[5]
*12 ui_in[6]
*13 ui_in[7]
*14 uio_in[0]
*15 uio_in[1]
*16 uio_in[2]
*17 uio_in[3]
*18 uio_in[4]
*19 uio_in[5]
*20 uio_in[6]
*21 uio_in[7]
*22 net10
*23 net11
*24 net12
*25 net13
*26 net14
*27 net15
*28 net16
*29 net17
*30 uio_out[0]
*31 uio_out[1]
*32 uio_out[2]
*33 uio_out[3]
*34 uio_out[4]
*35 uio_out[5]
*36 net8
*37 net9
*38 uo_out[0]
*39 uo_out[1]
*40 uo_out[2]
*41 uo_out[3]
*42 uo_out[4]
*43 uo_out[5]
*44 uo_out[6]
*45 uo_out[7]
*46 _0000_
*47 _0001_
*48 _0002_
*49 _0003_
*50 _0004_
*51 _0005_
*52 _0006_
*53 _0007_
*54 _0008_
*55 _0009_
*56 _0010_
*57 _0011_
*58 _0012_
*59 _0013_
*60 _0014_
*61 _0015_
*62 _0016_
*63 _0017_
*64 _0018_
*65 _0019_
*66 _0020_
*67 _0021_
*68 _0022_
*69 _0023_
*70 _0024_
*71 _0025_
*72 _0026_
*73 _0027_
*74 _0028_
*75 _0029_
*76 _0030_
*77 _0031_
*78 _0032_
*79 _0033_
*80 _0034_
*81 _0035_
*82 _0036_
*83 _0037_
*84 _0038_
*85 _0039_
*86 _0040_
*87 _0041_
*88 _0042_
*89 _0043_
*90 _0044_
*91 _0045_
*92 _0046_
*93 _0047_
*94 _0048_
*95 _0049_
*96 _0050_
*97 _0051_
*98 _0052_
*99 _0053_
*100 _0054_
*101 _0055_
*102 _0056_
*103 _0057_
*104 _0058_
*105 _0059_
*106 _0060_
*107 _0061_
*108 _0062_
*109 _0063_
*110 _0064_
*111 _0065_
*112 _0066_
*113 _0067_
*114 _0068_
*115 _0069_
*116 _0070_
*117 _0071_
*118 _0072_
*119 _0073_
*120 _0074_
*121 _0075_
*122 _0076_
*123 _0077_
*124 _0078_
*125 _0079_
*126 _0080_
*127 _0081_
*128 _0082_
*129 _0083_
*130 _0084_
*131 _0085_
*132 _0086_
*133 _0087_
*134 _0088_
*135 _0089_
*136 _0090_
*137 _0091_
*138 _0092_
*139 _0093_
*140 _0094_
*141 _0095_
*142 _0096_
*143 _0097_
*144 _0098_
*145 _0099_
*146 _0100_
*147 _0101_
*148 _0102_
*149 _0103_
*150 _0104_
*151 _0105_
*152 _0106_
*153 _0107_
*154 _0108_
*155 _0109_
*156 _0110_
*157 _0111_
*158 _0112_
*159 _0113_
*160 _0114_
*161 _0115_
*162 _0116_
*163 _0117_
*164 _0118_
*165 _0119_
*166 _0120_
*167 _0121_
*168 _0122_
*169 _0123_
*170 _0124_
*171 _0125_
*172 _0126_
*173 _0127_
*174 _0128_
*175 _0129_
*176 _0130_
*177 _0131_
*178 _0132_
*179 _0133_
*180 _0134_
*181 _0135_
*182 _0136_
*183 _0137_
*184 _0138_
*185 _0139_
*186 _0140_
*187 _0141_
*188 _0142_
*189 _0143_
*190 _0144_
*191 _0145_
*192 _0146_
*193 _0147_
*194 _0148_
*195 _0149_
*196 _0150_
*197 _0151_
*198 _0152_
*199 _0153_
*200 _0154_
*201 _0155_
*202 _0156_
*203 _0157_
*204 _0158_
*205 _0159_
*206 _0160_
*207 _0161_
*208 _0162_
*209 _0163_
*210 _0164_
*211 _0165_
*212 _0166_
*213 _0167_
*214 _0168_
*215 _0169_
*216 _0170_
*217 _0171_
*218 _0172_
*219 _0173_
*220 _0174_
*221 _0175_
*222 _0176_
*223 _0177_
*224 _0178_
*225 _0179_
*226 _0180_
*227 _0181_
*228 _0182_
*229 _0183_
*230 _0184_
*231 _0185_
*232 _0186_
*233 _0187_
*234 _0188_
*235 _0189_
*236 _0190_
*237 _0191_
*238 _0192_
*239 _0193_
*240 _0194_
*241 _0195_
*242 _0196_
*243 _0197_
*244 _0198_
*245 _0199_
*246 _0200_
*247 _0201_
*248 _0202_
*249 _0203_
*250 _0204_
*251 _0205_
*252 _0206_
*253 _0207_
*254 _0208_
*255 _0209_
*256 _0210_
*257 _0211_
*258 _0212_
*259 _0213_
*260 _0214_
*261 _0215_
*262 _0216_
*263 _0217_
*264 _0218_
*265 _0219_
*266 _0220_
*267 _0221_
*268 _0222_
*269 _0223_
*270 _0224_
*271 _0225_
*272 _0226_
*273 _0227_
*274 _0228_
*275 _0229_
*276 _0230_
*277 _0231_
*278 _0232_
*279 _0233_
*280 _0234_
*281 _0235_
*282 _0236_
*283 _0237_
*284 _0238_
*285 _0239_
*286 _0240_
*287 _0241_
*288 _0242_
*289 _0243_
*290 _0244_
*291 _0245_
*292 _0246_
*293 _0247_
*294 _0248_
*295 _0249_
*296 _0250_
*297 _0251_
*298 _0252_
*299 _0253_
*300 _0254_
*301 _0255_
*302 _0256_
*303 _0257_
*304 _0258_
*305 _0259_
*306 _0260_
*307 _0261_
*308 _0262_
*309 _0263_
*310 _0264_
*311 _0265_
*312 _0266_
*313 _0267_
*314 _0268_
*315 _0269_
*316 _0270_
*317 _0271_
*318 _0272_
*319 _0273_
*320 _0274_
*321 _0275_
*322 _0276_
*323 _0277_
*324 _0278_
*325 _0279_
*326 _0280_
*327 _0281_
*328 _0282_
*329 _0283_
*330 _0284_
*331 _0285_
*332 _0286_
*333 _0287_
*334 _0288_
*335 _0289_
*336 _0290_
*337 _0291_
*338 _0292_
*339 _0293_
*340 _0294_
*341 _0295_
*342 _0296_
*343 _0297_
*344 _0298_
*345 _0299_
*346 _0300_
*347 _0301_
*348 _0302_
*349 _0303_
*350 _0304_
*351 _0305_
*352 _0306_
*353 _0307_
*354 _0308_
*355 _0309_
*356 _0310_
*357 _0311_
*358 _0312_
*359 _0313_
*360 _0314_
*361 _0315_
*362 _0316_
*363 _0317_
*364 _0318_
*365 _0319_
*366 _0320_
*367 _0321_
*368 _0322_
*369 _0323_
*370 _0324_
*371 _0325_
*372 _0326_
*373 _0327_
*374 _0328_
*375 _0329_
*376 _0330_
*377 _0331_
*378 _0332_
*379 _0333_
*380 _0334_
*381 _0335_
*382 _0336_
*383 _0337_
*384 _0338_
*385 _0339_
*386 _0340_
*387 _0341_
*388 _0342_
*389 _0343_
*390 _0344_
*391 _0345_
*392 _0346_
*393 _0347_
*394 _0348_
*395 _0349_
*396 _0350_
*397 _0351_
*398 _0352_
*399 _0353_
*400 _0354_
*401 _0355_
*402 _0356_
*403 _0357_
*404 _0358_
*405 _0359_
*406 _0360_
*407 _0361_
*408 _0362_
*409 _0363_
*410 _0364_
*411 _0365_
*412 _0366_
*413 _0367_
*414 _0368_
*415 _0369_
*416 _0370_
*417 _0371_
*418 _0372_
*419 _0373_
*420 _0374_
*421 _0375_
*422 _0376_
*423 _0377_
*424 _0378_
*425 _0379_
*426 _0380_
*427 _0381_
*428 _0382_
*429 _0383_
*430 _0384_
*431 _0385_
*432 _0386_
*433 _0387_
*434 _0388_
*435 _0389_
*436 _0390_
*437 _0391_
*438 _0392_
*439 _0393_
*440 _0394_
*441 _0395_
*442 _0396_
*443 _0397_
*444 _0398_
*445 _0399_
*446 _0400_
*447 _0401_
*448 _0402_
*449 _0403_
*450 _0404_
*451 _0405_
*452 _0406_
*453 _0407_
*454 _0408_
*455 _0409_
*456 _0410_
*457 _0411_
*458 _0412_
*459 _0413_
*460 _0414_
*461 _0415_
*462 _0416_
*463 _0417_
*464 _0418_
*465 _0419_
*466 _0420_
*467 _0421_
*468 _0422_
*469 _0423_
*470 _0424_
*471 _0425_
*472 _0426_
*473 _0427_
*474 _0428_
*475 _0429_
*476 _0430_
*477 _0431_
*478 _0432_
*479 _0433_
*480 _0434_
*481 _0435_
*482 _0436_
*483 _0437_
*484 _0438_
*485 _0439_
*486 _0440_
*487 _0441_
*488 _0442_
*489 _0443_
*490 _0444_
*491 _0445_
*492 _0446_
*493 _0447_
*494 _0448_
*495 _0449_
*496 _0450_
*497 _0451_
*498 _0452_
*499 _0453_
*500 _0454_
*501 _0455_
*502 _0456_
*503 _0457_
*504 _0458_
*505 _0459_
*506 _0460_
*507 _0461_
*508 _0462_
*509 _0463_
*510 _0464_
*511 _0465_
*512 _0466_
*513 _0467_
*514 _0468_
*515 _0469_
*516 _0470_
*517 _0471_
*518 _0472_
*519 _0473_
*520 _0474_
*521 _0475_
*522 _0476_
*523 _0477_
*524 _0478_
*525 _0479_
*526 _0480_
*527 _0481_
*528 _0482_
*529 _0483_
*530 _0484_
*531 _0485_
*532 _0486_
*533 _0487_
*534 _0488_
*535 _0489_
*536 _0490_
*537 _0491_
*538 _0492_
*539 _0493_
*540 _0494_
*541 _0495_
*542 _0496_
*543 _0497_
*544 _0498_
*545 _0499_
*546 _0500_
*547 _0501_
*548 _0502_
*549 _0503_
*550 _0504_
*551 _0505_
*552 _0506_
*553 _0507_
*554 _0508_
*555 _0509_
*556 _0510_
*557 _0511_
*558 _0512_
*559 _0513_
*560 _0514_
*561 _0515_
*562 _0516_
*563 _0517_
*564 _0518_
*565 _0519_
*566 _0520_
*567 _0521_
*568 _0522_
*569 _0523_
*570 _0524_
*571 _0525_
*572 _0526_
*573 _0527_
*574 _0528_
*575 _0529_
*576 _0530_
*577 _0531_
*578 _0532_
*579 _0533_
*580 _0534_
*581 _0535_
*582 _0536_
*583 _0537_
*584 _0538_
*585 _0539_
*586 _0540_
*587 _0541_
*588 _0542_
*589 _0543_
*590 _0544_
*591 _0545_
*592 _0546_
*593 _0547_
*594 _0548_
*595 _0549_
*596 _0550_
*597 _0551_
*598 _0552_
*599 _0553_
*600 _0554_
*601 _0555_
*602 _0556_
*603 _0557_
*604 _0558_
*605 _0559_
*606 _0560_
*607 _0561_
*608 _0562_
*609 _0563_
*610 _0564_
*611 _0565_
*612 _0566_
*613 _0567_
*614 _0568_
*615 _0569_
*616 _0570_
*617 _0571_
*618 _0572_
*619 _0573_
*620 _0574_
*621 _0575_
*622 _0576_
*623 _0577_
*624 _0578_
*625 _0579_
*626 _0580_
*627 _0581_
*628 clknet_0_clk
*629 clknet_4_0_0_clk
*630 clknet_4_10_0_clk
*631 clknet_4_11_0_clk
*632 clknet_4_12_0_clk
*633 clknet_4_13_0_clk
*634 clknet_4_14_0_clk
*635 clknet_4_15_0_clk
*636 clknet_4_1_0_clk
*637 clknet_4_2_0_clk
*638 clknet_4_3_0_clk
*639 clknet_4_4_0_clk
*640 clknet_4_5_0_clk
*641 clknet_4_6_0_clk
*642 clknet_4_7_0_clk
*643 clknet_4_8_0_clk
*644 clknet_4_9_0_clk
*645 clock_counter\[0\]
*646 clock_counter\[10\]
*647 clock_counter\[11\]
*648 clock_counter\[12\]
*649 clock_counter\[13\]
*650 clock_counter\[14\]
*651 clock_counter\[15\]
*652 clock_counter\[16\]
*653 clock_counter\[17\]
*654 clock_counter\[18\]
*655 clock_counter\[19\]
*656 clock_counter\[1\]
*657 clock_counter\[20\]
*658 clock_counter\[21\]
*659 clock_counter\[22\]
*660 clock_counter\[23\]
*661 clock_counter\[24\]
*662 clock_counter\[25\]
*663 clock_counter\[2\]
*664 clock_counter\[3\]
*665 clock_counter\[4\]
*666 clock_counter\[5\]
*667 clock_counter\[6\]
*668 clock_counter\[7\]
*669 clock_counter\[8\]
*670 clock_counter\[9\]
*671 hours_increase\.counter\[0\]
*672 hours_increase\.counter\[10\]
*673 hours_increase\.counter\[11\]
*674 hours_increase\.counter\[12\]
*675 hours_increase\.counter\[13\]
*676 hours_increase\.counter\[14\]
*677 hours_increase\.counter\[15\]
*678 hours_increase\.counter\[16\]
*679 hours_increase\.counter\[17\]
*680 hours_increase\.counter\[18\]
*681 hours_increase\.counter\[19\]
*682 hours_increase\.counter\[1\]
*683 hours_increase\.counter\[20\]
*684 hours_increase\.counter\[21\]
*685 hours_increase\.counter\[22\]
*686 hours_increase\.counter\[23\]
*687 hours_increase\.counter\[24\]
*688 hours_increase\.counter\[25\]
*689 hours_increase\.counter\[26\]
*690 hours_increase\.counter\[27\]
*691 hours_increase\.counter\[28\]
*692 hours_increase\.counter\[29\]
*693 hours_increase\.counter\[2\]
*694 hours_increase\.counter\[30\]
*695 hours_increase\.counter\[31\]
*696 hours_increase\.counter\[32\]
*697 hours_increase\.counter\[3\]
*698 hours_increase\.counter\[4\]
*699 hours_increase\.counter\[5\]
*700 hours_increase\.counter\[6\]
*701 hours_increase\.counter\[7\]
*702 hours_increase\.counter\[8\]
*703 hours_increase\.counter\[9\]
*704 hrs_d\[0\]
*705 hrs_d\[1\]
*706 hrs_d\[2\]
*707 hrs_d\[3\]
*708 hrs_u\[0\]
*709 hrs_u\[1\]
*710 hrs_u\[2\]
*711 hrs_u\[3\]
*712 millis_counter\[0\]
*713 millis_counter\[10\]
*714 millis_counter\[11\]
*715 millis_counter\[12\]
*716 millis_counter\[13\]
*717 millis_counter\[14\]
*718 millis_counter\[15\]
*719 millis_counter\[16\]
*720 millis_counter\[17\]
*721 millis_counter\[18\]
*722 millis_counter\[19\]
*723 millis_counter\[1\]
*724 millis_counter\[20\]
*725 millis_counter\[21\]
*726 millis_counter\[22\]
*727 millis_counter\[23\]
*728 millis_counter\[24\]
*729 millis_counter\[25\]
*730 millis_counter\[2\]
*731 millis_counter\[3\]
*732 millis_counter\[4\]
*733 millis_counter\[5\]
*734 millis_counter\[6\]
*735 millis_counter\[7\]
*736 millis_counter\[8\]
*737 millis_counter\[9\]
*738 min_d\[0\]
*739 min_d\[1\]
*740 min_d\[2\]
*741 min_d\[3\]
*742 min_u\[0\]
*743 min_u\[1\]
*744 min_u\[2\]
*745 min_u\[3\]
*746 minutes_increase\.counter\[0\]
*747 minutes_increase\.counter\[10\]
*748 minutes_increase\.counter\[11\]
*749 minutes_increase\.counter\[12\]
*750 minutes_increase\.counter\[13\]
*751 minutes_increase\.counter\[14\]
*752 minutes_increase\.counter\[15\]
*753 minutes_increase\.counter\[16\]
*754 minutes_increase\.counter\[17\]
*755 minutes_increase\.counter\[18\]
*756 minutes_increase\.counter\[19\]
*757 minutes_increase\.counter\[1\]
*758 minutes_increase\.counter\[20\]
*759 minutes_increase\.counter\[21\]
*760 minutes_increase\.counter\[22\]
*761 minutes_increase\.counter\[23\]
*762 minutes_increase\.counter\[24\]
*763 minutes_increase\.counter\[25\]
*764 minutes_increase\.counter\[26\]
*765 minutes_increase\.counter\[27\]
*766 minutes_increase\.counter\[28\]
*767 minutes_increase\.counter\[29\]
*768 minutes_increase\.counter\[2\]
*769 minutes_increase\.counter\[30\]
*770 minutes_increase\.counter\[31\]
*771 minutes_increase\.counter\[32\]
*772 minutes_increase\.counter\[3\]
*773 minutes_increase\.counter\[4\]
*774 minutes_increase\.counter\[5\]
*775 minutes_increase\.counter\[6\]
*776 minutes_increase\.counter\[7\]
*777 minutes_increase\.counter\[8\]
*778 minutes_increase\.counter\[9\]
*779 net1
*780 net100
*781 net101
*782 net102
*783 net103
*784 net104
*785 net105
*786 net106
*787 net107
*788 net108
*789 net109
*790 net110
*791 net111
*792 net112
*793 net113
*794 net18
*795 net19
*796 net2
*797 net20
*798 net21
*799 net22
*800 net23
*801 net24
*802 net25
*803 net26
*804 net27
*805 net28
*806 net29
*807 net3
*808 net30
*809 net31
*810 net32
*811 net33
*812 net34
*813 net35
*814 net36
*815 net37
*816 net38
*817 net39
*818 net4
*819 net40
*820 net41
*821 net42
*822 net43
*823 net44
*824 net45
*825 net46
*826 net47
*827 net48
*828 net49
*829 net5
*830 net50
*831 net51
*832 net52
*833 net53
*834 net54
*835 net55
*836 net56
*837 net57
*838 net58
*839 net59
*840 net6
*841 net60
*842 net61
*843 net62
*844 net63
*845 net64
*846 net65
*847 net66
*848 net67
*849 net68
*850 net69
*851 net7
*852 net70
*853 net71
*854 net72
*855 net73
*856 net74
*857 net75
*858 net76
*859 net77
*860 net78
*861 net79
*862 net80
*863 net81
*864 net82
*865 net83
*866 net84
*867 net85
*868 net86
*869 net87
*870 net88
*871 net89
*872 net90
*873 net91
*874 net92
*875 net93
*876 net94
*877 net95
*878 net96
*879 net97
*880 net98
*881 net99
*882 pressed_hrs
*883 pressed_min
*884 pulseMinutes
*885 pulseSeconds
*886 sec_counter\[0\]
*887 sec_counter\[1\]
*888 sec_counter\[2\]
*889 sec_counter\[3\]
*890 sec_counter\[4\]
*891 sec_counter\[5\]
*892 sec_counter\[6\]
*893 selector_output\[0\]
*894 selector_output\[1\]
*895 selector_output\[2\]
*896 selector_output\[3\]
*897 time_leds\[1\]
*898 time_leds\[2\]
*899 time_leds\[3\]
*900 FILLER_0_0_109
*901 FILLER_0_0_113
*902 FILLER_0_0_125
*903 FILLER_0_0_137
*904 FILLER_0_0_141
*905 FILLER_0_0_15
*906 FILLER_0_0_153
*907 FILLER_0_0_165
*908 FILLER_0_0_169
*909 FILLER_0_0_181
*910 FILLER_0_0_193
*911 FILLER_0_0_197
*912 FILLER_0_0_209
*913 FILLER_0_0_221
*914 FILLER_0_0_225
*915 FILLER_0_0_237
*916 FILLER_0_0_249
*917 FILLER_0_0_253
*918 FILLER_0_0_265
*919 FILLER_0_0_27
*920 FILLER_0_0_277
*921 FILLER_0_0_281
*922 FILLER_0_0_29
*923 FILLER_0_0_293
*924 FILLER_0_0_3
*925 FILLER_0_0_305
*926 FILLER_0_0_309
*927 FILLER_0_0_321
*928 FILLER_0_0_333
*929 FILLER_0_0_337
*930 FILLER_0_0_349
*931 FILLER_0_0_41
*932 FILLER_0_0_53
*933 FILLER_0_0_57
*934 FILLER_0_0_69
*935 FILLER_0_0_81
*936 FILLER_0_0_85
*937 FILLER_0_0_97
*938 FILLER_0_10_108
*939 FILLER_0_10_116
*940 FILLER_0_10_129
*941 FILLER_0_10_137
*942 FILLER_0_10_15
*943 FILLER_0_10_160
*944 FILLER_0_10_164
*945 FILLER_0_10_172
*946 FILLER_0_10_176
*947 FILLER_0_10_182
*948 FILLER_0_10_190
*949 FILLER_0_10_233
*950 FILLER_0_10_251
*951 FILLER_0_10_267
*952 FILLER_0_10_27
*953 FILLER_0_10_279
*954 FILLER_0_10_283
*955 FILLER_0_10_29
*956 FILLER_0_10_3
*957 FILLER_0_10_309
*958 FILLER_0_10_321
*959 FILLER_0_10_333
*960 FILLER_0_10_345
*961 FILLER_0_10_41
*962 FILLER_0_10_53
*963 FILLER_0_10_68
*964 FILLER_0_10_80
*965 FILLER_0_10_85
*966 FILLER_0_10_91
*967 FILLER_0_11_127
*968 FILLER_0_11_139
*969 FILLER_0_11_145
*970 FILLER_0_11_15
*971 FILLER_0_11_152
*972 FILLER_0_11_164
*973 FILLER_0_11_169
*974 FILLER_0_11_181
*975 FILLER_0_11_193
*976 FILLER_0_11_215
*977 FILLER_0_11_223
*978 FILLER_0_11_225
*979 FILLER_0_11_275
*980 FILLER_0_11_3
*981 FILLER_0_11_31
*982 FILLER_0_11_311
*983 FILLER_0_11_323
*984 FILLER_0_11_327
*985 FILLER_0_11_331
*986 FILLER_0_11_335
*987 FILLER_0_11_348
*988 FILLER_0_11_52
*989 FILLER_0_11_57
*990 FILLER_0_11_77
*991 FILLER_0_11_89
*992 FILLER_0_11_95
*993 FILLER_0_12_11
*994 FILLER_0_12_126
*995 FILLER_0_12_138
*996 FILLER_0_12_141
*997 FILLER_0_12_147
*998 FILLER_0_12_151
*999 FILLER_0_12_163
*1000 FILLER_0_12_175
*1001 FILLER_0_12_187
*1002 FILLER_0_12_194
*1003 FILLER_0_12_213
*1004 FILLER_0_12_225
*1005 FILLER_0_12_231
*1006 FILLER_0_12_251
*1007 FILLER_0_12_253
*1008 FILLER_0_12_267
*1009 FILLER_0_12_271
*1010 FILLER_0_12_3
*1011 FILLER_0_12_307
*1012 FILLER_0_12_309
*1013 FILLER_0_12_321
*1014 FILLER_0_12_339
*1015 FILLER_0_12_348
*1016 FILLER_0_12_35
*1017 FILLER_0_12_46
*1018 FILLER_0_12_54
*1019 FILLER_0_12_81
*1020 FILLER_0_12_85
*1021 FILLER_0_12_93
*1022 FILLER_0_13_105
*1023 FILLER_0_13_113
*1024 FILLER_0_13_131
*1025 FILLER_0_13_139
*1026 FILLER_0_13_165
*1027 FILLER_0_13_169
*1028 FILLER_0_13_177
*1029 FILLER_0_13_18
*1030 FILLER_0_13_190
*1031 FILLER_0_13_215
*1032 FILLER_0_13_22
*1033 FILLER_0_13_223
*1034 FILLER_0_13_225
*1035 FILLER_0_13_237
*1036 FILLER_0_13_248
*1037 FILLER_0_13_257
*1038 FILLER_0_13_263
*1039 FILLER_0_13_287
*1040 FILLER_0_13_3
*1041 FILLER_0_13_308
*1042 FILLER_0_13_314
*1043 FILLER_0_13_32
*1044 FILLER_0_13_334
*1045 FILLER_0_13_337
*1046 FILLER_0_13_43
*1047 FILLER_0_13_55
*1048 FILLER_0_13_63
*1049 FILLER_0_13_87
*1050 FILLER_0_13_99
*1051 FILLER_0_14_139
*1052 FILLER_0_14_141
*1053 FILLER_0_14_173
*1054 FILLER_0_14_177
*1055 FILLER_0_14_194
*1056 FILLER_0_14_203
*1057 FILLER_0_14_214
*1058 FILLER_0_14_226
*1059 FILLER_0_14_238
*1060 FILLER_0_14_250
*1061 FILLER_0_14_253
*1062 FILLER_0_14_265
*1063 FILLER_0_14_273
*1064 FILLER_0_14_293
*1065 FILLER_0_14_3
*1066 FILLER_0_14_305
*1067 FILLER_0_14_309
*1068 FILLER_0_14_36
*1069 FILLER_0_14_48
*1070 FILLER_0_14_52
*1071 FILLER_0_14_82
*1072 FILLER_0_14_85
*1073 FILLER_0_14_97
*1074 FILLER_0_15_103
*1075 FILLER_0_15_129
*1076 FILLER_0_15_140
*1077 FILLER_0_15_163
*1078 FILLER_0_15_167
*1079 FILLER_0_15_169
*1080 FILLER_0_15_177
*1081 FILLER_0_15_186
*1082 FILLER_0_15_192
*1083 FILLER_0_15_198
*1084 FILLER_0_15_236
*1085 FILLER_0_15_261
*1086 FILLER_0_15_274
*1087 FILLER_0_15_281
*1088 FILLER_0_15_286
*1089 FILLER_0_15_290
*1090 FILLER_0_15_298
*1091 FILLER_0_15_3
*1092 FILLER_0_15_314
*1093 FILLER_0_15_350
*1094 FILLER_0_15_45
*1095 FILLER_0_15_53
*1096 FILLER_0_15_57
*1097 FILLER_0_15_72
*1098 FILLER_0_15_83
*1099 FILLER_0_15_95
*1100 FILLER_0_16_109
*1101 FILLER_0_16_11
*1102 FILLER_0_16_118
*1103 FILLER_0_16_126
*1104 FILLER_0_16_138
*1105 FILLER_0_16_146
*1106 FILLER_0_16_153
*1107 FILLER_0_16_165
*1108 FILLER_0_16_177
*1109 FILLER_0_16_188
*1110 FILLER_0_16_226
*1111 FILLER_0_16_251
*1112 FILLER_0_16_269
*1113 FILLER_0_16_284
*1114 FILLER_0_16_3
*1115 FILLER_0_16_305
*1116 FILLER_0_16_309
*1117 FILLER_0_16_316
*1118 FILLER_0_16_328
*1119 FILLER_0_16_345
*1120 FILLER_0_16_349
*1121 FILLER_0_16_43
*1122 FILLER_0_16_55
*1123 FILLER_0_16_59
*1124 FILLER_0_16_64
*1125 FILLER_0_16_85
*1126 FILLER_0_16_97
*1127 FILLER_0_17_104
*1128 FILLER_0_17_11
*1129 FILLER_0_17_113
*1130 FILLER_0_17_121
*1131 FILLER_0_17_159
*1132 FILLER_0_17_167
*1133 FILLER_0_17_169
*1134 FILLER_0_17_202
*1135 FILLER_0_17_211
*1136 FILLER_0_17_223
*1137 FILLER_0_17_228
*1138 FILLER_0_17_3
*1139 FILLER_0_17_326
*1140 FILLER_0_17_334
*1141 FILLER_0_17_49
*1142 FILLER_0_17_55
*1143 FILLER_0_17_57
*1144 FILLER_0_17_84
*1145 FILLER_0_17_96
*1146 FILLER_0_18_122
*1147 FILLER_0_18_138
*1148 FILLER_0_18_15
*1149 FILLER_0_18_165
*1150 FILLER_0_18_171
*1151 FILLER_0_18_202
*1152 FILLER_0_18_210
*1153 FILLER_0_18_216
*1154 FILLER_0_18_222
*1155 FILLER_0_18_234
*1156 FILLER_0_18_238
*1157 FILLER_0_18_245
*1158 FILLER_0_18_266
*1159 FILLER_0_18_274
*1160 FILLER_0_18_3
*1161 FILLER_0_18_306
*1162 FILLER_0_18_321
*1163 FILLER_0_18_346
*1164 FILLER_0_18_35
*1165 FILLER_0_18_350
*1166 FILLER_0_18_41
*1167 FILLER_0_18_49
*1168 FILLER_0_18_61
*1169 FILLER_0_18_67
*1170 FILLER_0_18_96
*1171 FILLER_0_19_101
*1172 FILLER_0_19_105
*1173 FILLER_0_19_111
*1174 FILLER_0_19_113
*1175 FILLER_0_19_133
*1176 FILLER_0_19_15
*1177 FILLER_0_19_154
*1178 FILLER_0_19_166
*1179 FILLER_0_19_169
*1180 FILLER_0_19_206
*1181 FILLER_0_19_218
*1182 FILLER_0_19_225
*1183 FILLER_0_19_23
*1184 FILLER_0_19_232
*1185 FILLER_0_19_244
*1186 FILLER_0_19_256
*1187 FILLER_0_19_262
*1188 FILLER_0_19_277
*1189 FILLER_0_19_28
*1190 FILLER_0_19_281
*1191 FILLER_0_19_298
*1192 FILLER_0_19_3
*1193 FILLER_0_19_308
*1194 FILLER_0_19_317
*1195 FILLER_0_19_337
*1196 FILLER_0_19_349
*1197 FILLER_0_19_57
*1198 FILLER_0_19_93
*1199 FILLER_0_1_105
*1200 FILLER_0_1_111
*1201 FILLER_0_1_113
*1202 FILLER_0_1_125
*1203 FILLER_0_1_137
*1204 FILLER_0_1_149
*1205 FILLER_0_1_15
*1206 FILLER_0_1_161
*1207 FILLER_0_1_167
*1208 FILLER_0_1_169
*1209 FILLER_0_1_181
*1210 FILLER_0_1_193
*1211 FILLER_0_1_205
*1212 FILLER_0_1_217
*1213 FILLER_0_1_223
*1214 FILLER_0_1_225
*1215 FILLER_0_1_237
*1216 FILLER_0_1_249
*1217 FILLER_0_1_261
*1218 FILLER_0_1_27
*1219 FILLER_0_1_273
*1220 FILLER_0_1_279
*1221 FILLER_0_1_281
*1222 FILLER_0_1_293
*1223 FILLER_0_1_3
*1224 FILLER_0_1_305
*1225 FILLER_0_1_317
*1226 FILLER_0_1_329
*1227 FILLER_0_1_335
*1228 FILLER_0_1_337
*1229 FILLER_0_1_349
*1230 FILLER_0_1_39
*1231 FILLER_0_1_51
*1232 FILLER_0_1_55
*1233 FILLER_0_1_57
*1234 FILLER_0_1_69
*1235 FILLER_0_1_81
*1236 FILLER_0_1_93
*1237 FILLER_0_20_114
*1238 FILLER_0_20_138
*1239 FILLER_0_20_148
*1240 FILLER_0_20_160
*1241 FILLER_0_20_172
*1242 FILLER_0_20_197
*1243 FILLER_0_20_209
*1244 FILLER_0_20_217
*1245 FILLER_0_20_234
*1246 FILLER_0_20_253
*1247 FILLER_0_20_27
*1248 FILLER_0_20_277
*1249 FILLER_0_20_289
*1250 FILLER_0_20_29
*1251 FILLER_0_20_297
*1252 FILLER_0_20_3
*1253 FILLER_0_20_301
*1254 FILLER_0_20_325
*1255 FILLER_0_20_337
*1256 FILLER_0_20_349
*1257 FILLER_0_20_62
*1258 FILLER_0_20_93
*1259 FILLER_0_20_97
*1260 FILLER_0_21_109
*1261 FILLER_0_21_113
*1262 FILLER_0_21_125
*1263 FILLER_0_21_137
*1264 FILLER_0_21_143
*1265 FILLER_0_21_149
*1266 FILLER_0_21_161
*1267 FILLER_0_21_167
*1268 FILLER_0_21_169
*1269 FILLER_0_21_175
*1270 FILLER_0_21_192
*1271 FILLER_0_21_204
*1272 FILLER_0_21_212
*1273 FILLER_0_21_257
*1274 FILLER_0_21_279
*1275 FILLER_0_21_281
*1276 FILLER_0_21_289
*1277 FILLER_0_21_3
*1278 FILLER_0_21_331
*1279 FILLER_0_21_335
*1280 FILLER_0_21_337
*1281 FILLER_0_21_345
*1282 FILLER_0_21_350
*1283 FILLER_0_21_40
*1284 FILLER_0_21_44
*1285 FILLER_0_21_48
*1286 FILLER_0_21_73
*1287 FILLER_0_21_90
*1288 FILLER_0_22_118
*1289 FILLER_0_22_125
*1290 FILLER_0_22_137
*1291 FILLER_0_22_141
*1292 FILLER_0_22_158
*1293 FILLER_0_22_170
*1294 FILLER_0_22_182
*1295 FILLER_0_22_190
*1296 FILLER_0_22_195
*1297 FILLER_0_22_197
*1298 FILLER_0_22_209
*1299 FILLER_0_22_249
*1300 FILLER_0_22_253
*1301 FILLER_0_22_259
*1302 FILLER_0_22_297
*1303 FILLER_0_22_3
*1304 FILLER_0_22_305
*1305 FILLER_0_22_312
*1306 FILLER_0_22_324
*1307 FILLER_0_22_328
*1308 FILLER_0_22_350
*1309 FILLER_0_22_39
*1310 FILLER_0_22_51
*1311 FILLER_0_22_60
*1312 FILLER_0_22_64
*1313 FILLER_0_22_69
*1314 FILLER_0_22_75
*1315 FILLER_0_22_81
*1316 FILLER_0_22_85
*1317 FILLER_0_22_9
*1318 FILLER_0_23_11
*1319 FILLER_0_23_113
*1320 FILLER_0_23_125
*1321 FILLER_0_23_143
*1322 FILLER_0_23_169
*1323 FILLER_0_23_175
*1324 FILLER_0_23_217
*1325 FILLER_0_23_223
*1326 FILLER_0_23_231
*1327 FILLER_0_23_239
*1328 FILLER_0_23_253
*1329 FILLER_0_23_265
*1330 FILLER_0_23_273
*1331 FILLER_0_23_279
*1332 FILLER_0_23_281
*1333 FILLER_0_23_3
*1334 FILLER_0_23_313
*1335 FILLER_0_23_342
*1336 FILLER_0_23_42
*1337 FILLER_0_23_54
*1338 FILLER_0_23_57
*1339 FILLER_0_23_69
*1340 FILLER_0_23_73
*1341 FILLER_0_23_95
*1342 FILLER_0_24_116
*1343 FILLER_0_24_15
*1344 FILLER_0_24_151
*1345 FILLER_0_24_160
*1346 FILLER_0_24_178
*1347 FILLER_0_24_190
*1348 FILLER_0_24_21
*1349 FILLER_0_24_222
*1350 FILLER_0_24_234
*1351 FILLER_0_24_267
*1352 FILLER_0_24_27
*1353 FILLER_0_24_271
*1354 FILLER_0_24_296
*1355 FILLER_0_24_3
*1356 FILLER_0_24_300
*1357 FILLER_0_24_309
*1358 FILLER_0_24_317
*1359 FILLER_0_24_34
*1360 FILLER_0_24_349
*1361 FILLER_0_24_46
*1362 FILLER_0_24_52
*1363 FILLER_0_24_58
*1364 FILLER_0_24_62
*1365 FILLER_0_24_72
*1366 FILLER_0_24_83
*1367 FILLER_0_24_93
*1368 FILLER_0_25_106
*1369 FILLER_0_25_113
*1370 FILLER_0_25_125
*1371 FILLER_0_25_15
*1372 FILLER_0_25_156
*1373 FILLER_0_25_166
*1374 FILLER_0_25_169
*1375 FILLER_0_25_181
*1376 FILLER_0_25_220
*1377 FILLER_0_25_225
*1378 FILLER_0_25_23
*1379 FILLER_0_25_271
*1380 FILLER_0_25_3
*1381 FILLER_0_25_312
*1382 FILLER_0_25_318
*1383 FILLER_0_25_335
*1384 FILLER_0_25_340
*1385 FILLER_0_25_347
*1386 FILLER_0_25_40
*1387 FILLER_0_25_52
*1388 FILLER_0_25_57
*1389 FILLER_0_25_78
*1390 FILLER_0_25_96
*1391 FILLER_0_26_110
*1392 FILLER_0_26_123
*1393 FILLER_0_26_135
*1394 FILLER_0_26_139
*1395 FILLER_0_26_141
*1396 FILLER_0_26_166
*1397 FILLER_0_26_178
*1398 FILLER_0_26_190
*1399 FILLER_0_26_197
*1400 FILLER_0_26_217
*1401 FILLER_0_26_229
*1402 FILLER_0_26_266
*1403 FILLER_0_26_279
*1404 FILLER_0_26_3
*1405 FILLER_0_26_304
*1406 FILLER_0_26_315
*1407 FILLER_0_26_348
*1408 FILLER_0_26_45
*1409 FILLER_0_26_82
*1410 FILLER_0_26_85
*1411 FILLER_0_26_93
*1412 FILLER_0_26_98
*1413 FILLER_0_27_11
*1414 FILLER_0_27_111
*1415 FILLER_0_27_113
*1416 FILLER_0_27_140
*1417 FILLER_0_27_167
*1418 FILLER_0_27_172
*1419 FILLER_0_27_184
*1420 FILLER_0_27_216
*1421 FILLER_0_27_228
*1422 FILLER_0_27_240
*1423 FILLER_0_27_244
*1424 FILLER_0_27_258
*1425 FILLER_0_27_266
*1426 FILLER_0_27_3
*1427 FILLER_0_27_308
*1428 FILLER_0_27_326
*1429 FILLER_0_27_337
*1430 FILLER_0_27_350
*1431 FILLER_0_27_54
*1432 FILLER_0_27_87
*1433 FILLER_0_28_146
*1434 FILLER_0_28_15
*1435 FILLER_0_28_174
*1436 FILLER_0_28_180
*1437 FILLER_0_28_186
*1438 FILLER_0_28_194
*1439 FILLER_0_28_243
*1440 FILLER_0_28_251
*1441 FILLER_0_28_253
*1442 FILLER_0_28_26
*1443 FILLER_0_28_265
*1444 FILLER_0_28_271
*1445 FILLER_0_28_275
*1446 FILLER_0_28_3
*1447 FILLER_0_28_307
*1448 FILLER_0_28_309
*1449 FILLER_0_28_32
*1450 FILLER_0_28_44
*1451 FILLER_0_28_56
*1452 FILLER_0_28_60
*1453 FILLER_0_28_64
*1454 FILLER_0_28_70
*1455 FILLER_0_28_82
*1456 FILLER_0_28_85
*1457 FILLER_0_29_135
*1458 FILLER_0_29_147
*1459 FILLER_0_29_15
*1460 FILLER_0_29_153
*1461 FILLER_0_29_164
*1462 FILLER_0_29_169
*1463 FILLER_0_29_177
*1464 FILLER_0_29_187
*1465 FILLER_0_29_199
*1466 FILLER_0_29_216
*1467 FILLER_0_29_225
*1468 FILLER_0_29_244
*1469 FILLER_0_29_256
*1470 FILLER_0_29_264
*1471 FILLER_0_29_269
*1472 FILLER_0_29_27
*1473 FILLER_0_29_277
*1474 FILLER_0_29_290
*1475 FILLER_0_29_3
*1476 FILLER_0_29_301
*1477 FILLER_0_29_313
*1478 FILLER_0_29_319
*1479 FILLER_0_29_333
*1480 FILLER_0_29_337
*1481 FILLER_0_29_34
*1482 FILLER_0_29_343
*1483 FILLER_0_29_46
*1484 FILLER_0_29_55
*1485 FILLER_0_29_60
*1486 FILLER_0_29_69
*1487 FILLER_0_29_75
*1488 FILLER_0_29_87
*1489 FILLER_0_29_95
*1490 FILLER_0_2_109
*1491 FILLER_0_2_121
*1492 FILLER_0_2_133
*1493 FILLER_0_2_139
*1494 FILLER_0_2_141
*1495 FILLER_0_2_15
*1496 FILLER_0_2_153
*1497 FILLER_0_2_165
*1498 FILLER_0_2_177
*1499 FILLER_0_2_189
*1500 FILLER_0_2_195
*1501 FILLER_0_2_197
*1502 FILLER_0_2_209
*1503 FILLER_0_2_221
*1504 FILLER_0_2_233
*1505 FILLER_0_2_245
*1506 FILLER_0_2_251
*1507 FILLER_0_2_253
*1508 FILLER_0_2_265
*1509 FILLER_0_2_27
*1510 FILLER_0_2_277
*1511 FILLER_0_2_289
*1512 FILLER_0_2_29
*1513 FILLER_0_2_3
*1514 FILLER_0_2_301
*1515 FILLER_0_2_307
*1516 FILLER_0_2_309
*1517 FILLER_0_2_321
*1518 FILLER_0_2_333
*1519 FILLER_0_2_345
*1520 FILLER_0_2_41
*1521 FILLER_0_2_53
*1522 FILLER_0_2_65
*1523 FILLER_0_2_77
*1524 FILLER_0_2_83
*1525 FILLER_0_2_85
*1526 FILLER_0_2_97
*1527 FILLER_0_30_109
*1528 FILLER_0_30_129
*1529 FILLER_0_30_137
*1530 FILLER_0_30_141
*1531 FILLER_0_30_153
*1532 FILLER_0_30_168
*1533 FILLER_0_30_174
*1534 FILLER_0_30_218
*1535 FILLER_0_30_226
*1536 FILLER_0_30_235
*1537 FILLER_0_30_249
*1538 FILLER_0_30_253
*1539 FILLER_0_30_259
*1540 FILLER_0_30_276
*1541 FILLER_0_30_286
*1542 FILLER_0_30_3
*1543 FILLER_0_30_305
*1544 FILLER_0_30_318
*1545 FILLER_0_30_349
*1546 FILLER_0_30_50
*1547 FILLER_0_30_58
*1548 FILLER_0_30_82
*1549 FILLER_0_30_85
*1550 FILLER_0_30_97
*1551 FILLER_0_31_111
*1552 FILLER_0_31_130
*1553 FILLER_0_31_142
*1554 FILLER_0_31_150
*1555 FILLER_0_31_160
*1556 FILLER_0_31_169
*1557 FILLER_0_31_177
*1558 FILLER_0_31_225
*1559 FILLER_0_31_235
*1560 FILLER_0_31_253
*1561 FILLER_0_31_278
*1562 FILLER_0_31_3
*1563 FILLER_0_31_300
*1564 FILLER_0_31_331
*1565 FILLER_0_31_335
*1566 FILLER_0_31_337
*1567 FILLER_0_31_34
*1568 FILLER_0_31_350
*1569 FILLER_0_31_52
*1570 FILLER_0_31_64
*1571 FILLER_0_31_87
*1572 FILLER_0_31_99
*1573 FILLER_0_32_100
*1574 FILLER_0_32_123
*1575 FILLER_0_32_135
*1576 FILLER_0_32_139
*1577 FILLER_0_32_141
*1578 FILLER_0_32_165
*1579 FILLER_0_32_173
*1580 FILLER_0_32_197
*1581 FILLER_0_32_212
*1582 FILLER_0_32_250
*1583 FILLER_0_32_256
*1584 FILLER_0_32_262
*1585 FILLER_0_32_29
*1586 FILLER_0_32_292
*1587 FILLER_0_32_3
*1588 FILLER_0_32_302
*1589 FILLER_0_32_343
*1590 FILLER_0_32_53
*1591 FILLER_0_32_96
*1592 FILLER_0_33_105
*1593 FILLER_0_33_136
*1594 FILLER_0_33_15
*1595 FILLER_0_33_163
*1596 FILLER_0_33_167
*1597 FILLER_0_33_169
*1598 FILLER_0_33_180
*1599 FILLER_0_33_209
*1600 FILLER_0_33_21
*1601 FILLER_0_33_217
*1602 FILLER_0_33_241
*1603 FILLER_0_33_25
*1604 FILLER_0_33_253
*1605 FILLER_0_33_257
*1606 FILLER_0_33_277
*1607 FILLER_0_33_281
*1608 FILLER_0_33_293
*1609 FILLER_0_33_3
*1610 FILLER_0_33_301
*1611 FILLER_0_33_308
*1612 FILLER_0_33_320
*1613 FILLER_0_33_328
*1614 FILLER_0_33_34
*1615 FILLER_0_33_348
*1616 FILLER_0_33_45
*1617 FILLER_0_33_54
*1618 FILLER_0_33_57
*1619 FILLER_0_33_65
*1620 FILLER_0_33_93
*1621 FILLER_0_34_11
*1622 FILLER_0_34_134
*1623 FILLER_0_34_156
*1624 FILLER_0_34_168
*1625 FILLER_0_34_195
*1626 FILLER_0_34_218
*1627 FILLER_0_34_226
*1628 FILLER_0_34_230
*1629 FILLER_0_34_242
*1630 FILLER_0_34_250
*1631 FILLER_0_34_253
*1632 FILLER_0_34_262
*1633 FILLER_0_34_273
*1634 FILLER_0_34_282
*1635 FILLER_0_34_3
*1636 FILLER_0_34_300
*1637 FILLER_0_34_309
*1638 FILLER_0_34_321
*1639 FILLER_0_34_337
*1640 FILLER_0_34_349
*1641 FILLER_0_34_35
*1642 FILLER_0_34_43
*1643 FILLER_0_34_49
*1644 FILLER_0_34_56
*1645 FILLER_0_34_68
*1646 FILLER_0_34_82
*1647 FILLER_0_34_85
*1648 FILLER_0_34_97
*1649 FILLER_0_35_105
*1650 FILLER_0_35_113
*1651 FILLER_0_35_137
*1652 FILLER_0_35_160
*1653 FILLER_0_35_169
*1654 FILLER_0_35_222
*1655 FILLER_0_35_225
*1656 FILLER_0_35_23
*1657 FILLER_0_35_237
*1658 FILLER_0_35_245
*1659 FILLER_0_35_250
*1660 FILLER_0_35_3
*1661 FILLER_0_35_316
*1662 FILLER_0_35_44
*1663 FILLER_0_35_55
*1664 FILLER_0_35_66
*1665 FILLER_0_35_78
*1666 FILLER_0_35_82