*SPEF "ieee 1481-1999"
*DESIGN "tt_um_tiny_game_of_life"
*DATE "11:11:11 Fri 11 11, 1111"
*VENDOR "OpenRCX"
*PROGRAM "Parallel Extraction"
*VERSION "1.0"
*DESIGN_FLOW "NAME_SCOPE LOCAL" "PIN_CAP NONE"
*DIVIDER /
*DELIMITER :
*BUS_DELIMITER []
*T_UNIT 1 NS
*C_UNIT 1 PF
*R_UNIT 1 OHM
*L_UNIT 1 HENRY

*NAME_MAP
*3 clk
*4 ena
*5 rst_n
*6 ui_in[0]
*7 ui_in[1]
*8 ui_in[2]
*9 ui_in[3]
*10 ui_in[4]
*11 ui_in[5]
*12 ui_in[6]
*13 ui_in[7]
*14 uio_in[0]
*15 uio_in[1]
*16 uio_in[2]
*17 uio_in[3]
*18 uio_in[4]
*19 uio_in[5]
*20 uio_in[6]
*21 uio_in[7]
*22 net4
*23 net5
*24 net6
*25 net7
*26 net8
*27 net9
*28 net10
*29 net11
*30 net12
*31 net13
*32 net14
*33 net15
*34 net16
*35 net17
*36 net18
*37 net19
*38 uo_out[0]
*39 uo_out[1]
*40 uo_out[2]
*41 uo_out[3]
*42 uo_out[4]
*43 uo_out[5]
*44 uo_out[6]
*45 uo_out[7]
*46 Petros_Game_of_Life\.cntr\.eqToMax
*47 Petros_Game_of_Life\.currState\[0\]
*48 Petros_Game_of_Life\.currState\[1\]
*49 Petros_Game_of_Life\.currState\[2\]
*50 Petros_Game_of_Life\.shift\.genblk1\[0\]\.genblk1\.ff\.add\.cell_in
*51 Petros_Game_of_Life\.shift\.genblk1\[0\]\.genblk1\.ff\.add\.n1
*52 Petros_Game_of_Life\.shift\.genblk1\[0\]\.genblk1\.ff\.add\.n2
*53 Petros_Game_of_Life\.shift\.genblk1\[0\]\.genblk1\.ff\.add\.n3
*54 Petros_Game_of_Life\.shift\.genblk1\[0\]\.genblk1\.uff\.ff\.q
*55 Petros_Game_of_Life\.shift\.genblk1\[10\]\.genblk1\.genblk1\.genblk1\.genblk1\.genblk1\.genblk1\.genblk1\.genblk1\.ff\.add\.cell_in
*56 Petros_Game_of_Life\.shift\.genblk1\[10\]\.genblk1\.genblk1\.genblk1\.genblk1\.genblk1\.genblk1\.genblk1\.genblk1\.ff\.add\.n2
*57 Petros_Game_of_Life\.shift\.genblk1\[10\]\.genblk1\.genblk1\.genblk1\.genblk1\.genblk1\.genblk1\.genblk1\.genblk1\.ff\.add\.n3
*58 Petros_Game_of_Life\.shift\.genblk1\[10\]\.genblk1\.genblk1\.genblk1\.genblk1\.genblk1\.genblk1\.genblk1\.genblk1\.ff\.add\.n4
*59 Petros_Game_of_Life\.shift\.genblk1\[10\]\.genblk1\.genblk1\.genblk1\.genblk1\.genblk1\.genblk1\.genblk1\.genblk1\.ff\.add\.n5
*60 Petros_Game_of_Life\.shift\.genblk1\[10\]\.genblk1\.genblk1\.genblk1\.genblk1\.genblk1\.genblk1\.genblk1\.genblk1\.ff\.add\.n7
*61 Petros_Game_of_Life\.shift\.genblk1\[10\]\.genblk1\.genblk1\.genblk1\.genblk1\.genblk1\.genblk1\.genblk1\.genblk1\.ff\.add\.n8
*62 Petros_Game_of_Life\.shift\.genblk1\[10\]\.genblk1\.genblk1\.genblk1\.genblk1\.genblk1\.genblk1\.genblk1\.genblk1\.uff\.d0
*63 Petros_Game_of_Life\.shift\.genblk1\[10\]\.genblk1\.genblk1\.genblk1\.genblk1\.genblk1\.genblk1\.genblk1\.genblk1\.uff\.ff\.q
*64 Petros_Game_of_Life\.shift\.genblk1\[11\]\.genblk1\.genblk1\.genblk1\.genblk1\.genblk1\.genblk1\.genblk1\.genblk1\.ff\.add\.n2
*65 Petros_Game_of_Life\.shift\.genblk1\[11\]\.genblk1\.genblk1\.genblk1\.genblk1\.genblk1\.genblk1\.genblk1\.genblk1\.ff\.add\.n5
*66 Petros_Game_of_Life\.shift\.genblk1\[11\]\.genblk1\.genblk1\.genblk1\.genblk1\.genblk1\.genblk1\.genblk1\.genblk1\.ff\.add\.n8
*67 Petros_Game_of_Life\.shift\.genblk1\[11\]\.genblk1\.genblk1\.genblk1\.genblk1\.genblk1\.genblk1\.genblk1\.genblk1\.uff\.ff\.q
*68 Petros_Game_of_Life\.shift\.genblk1\[12\]\.genblk1\.genblk1\.genblk1\.genblk1\.genblk1\.genblk1\.genblk1\.genblk1\.ff\.add\.n2
*69 Petros_Game_of_Life\.shift\.genblk1\[12\]\.genblk1\.genblk1\.genblk1\.genblk1\.genblk1\.genblk1\.genblk1\.genblk1\.ff\.add\.n5
*70 Petros_Game_of_Life\.shift\.genblk1\[12\]\.genblk1\.genblk1\.genblk1\.genblk1\.genblk1\.genblk1\.genblk1\.genblk1\.ff\.add\.n8
*71 Petros_Game_of_Life\.shift\.genblk1\[12\]\.genblk1\.genblk1\.genblk1\.genblk1\.genblk1\.genblk1\.genblk1\.genblk1\.uff\.ff\.q
*72 Petros_Game_of_Life\.shift\.genblk1\[13\]\.genblk1\.genblk1\.genblk1\.genblk1\.genblk1\.genblk1\.genblk1\.genblk1\.ff\.add\.n2
*73 Petros_Game_of_Life\.shift\.genblk1\[13\]\.genblk1\.genblk1\.genblk1\.genblk1\.genblk1\.genblk1\.genblk1\.genblk1\.ff\.add\.n5
*74 Petros_Game_of_Life\.shift\.genblk1\[13\]\.genblk1\.genblk1\.genblk1\.genblk1\.genblk1\.genblk1\.genblk1\.genblk1\.ff\.add\.n8
*75 Petros_Game_of_Life\.shift\.genblk1\[13\]\.genblk1\.genblk1\.genblk1\.genblk1\.genblk1\.genblk1\.genblk1\.genblk1\.uff\.ff\.q
*76 Petros_Game_of_Life\.shift\.genblk1\[14\]\.genblk1\.genblk1\.genblk1\.genblk1\.genblk1\.genblk1\.genblk1\.genblk1\.ff\.add\.n2
*77 Petros_Game_of_Life\.shift\.genblk1\[14\]\.genblk1\.genblk1\.genblk1\.genblk1\.genblk1\.genblk1\.genblk1\.genblk1\.ff\.add\.n5
*78 Petros_Game_of_Life\.shift\.genblk1\[14\]\.genblk1\.genblk1\.genblk1\.genblk1\.genblk1\.genblk1\.genblk1\.genblk1\.ff\.add\.n8
*79 Petros_Game_of_Life\.shift\.genblk1\[14\]\.genblk1\.genblk1\.genblk1\.genblk1\.genblk1\.genblk1\.genblk1\.genblk1\.uff\.ff\.q
*80 Petros_Game_of_Life\.shift\.genblk1\[15\]\.genblk1\.genblk1\.genblk1\.genblk1\.genblk1\.genblk1\.genblk1\.uff\.ff\.q
*81 Petros_Game_of_Life\.shift\.genblk1\[16\]\.genblk1\.genblk1\.genblk1\.genblk1\.genblk1\.genblk1\.ff\.add\.cell_in
*82 Petros_Game_of_Life\.shift\.genblk1\[16\]\.genblk1\.genblk1\.genblk1\.genblk1\.genblk1\.genblk1\.ff\.add\.n4
*83 Petros_Game_of_Life\.shift\.genblk1\[16\]\.genblk1\.genblk1\.genblk1\.genblk1\.genblk1\.genblk1\.ff\.add\.n5
*84 Petros_Game_of_Life\.shift\.genblk1\[16\]\.genblk1\.genblk1\.genblk1\.genblk1\.genblk1\.genblk1\.uff\.ff\.q
*85 Petros_Game_of_Life\.shift\.genblk1\[17\]\.genblk1\.genblk1\.genblk1\.genblk1\.genblk1\.genblk1\.genblk1\.genblk1\.ff\.add\.n5
*86 Petros_Game_of_Life\.shift\.genblk1\[17\]\.genblk1\.genblk1\.genblk1\.genblk1\.genblk1\.genblk1\.genblk1\.genblk1\.uff\.ff\.q
*87 Petros_Game_of_Life\.shift\.genblk1\[18\]\.genblk1\.genblk1\.genblk1\.genblk1\.genblk1\.genblk1\.genblk1\.genblk1\.ff\.add\.n5
*88 Petros_Game_of_Life\.shift\.genblk1\[18\]\.genblk1\.genblk1\.genblk1\.genblk1\.genblk1\.genblk1\.genblk1\.genblk1\.uff\.ff\.q
*89 Petros_Game_of_Life\.shift\.genblk1\[19\]\.genblk1\.genblk1\.genblk1\.genblk1\.genblk1\.genblk1\.genblk1\.genblk1\.ff\.add\.n5
*90 Petros_Game_of_Life\.shift\.genblk1\[19\]\.genblk1\.genblk1\.genblk1\.genblk1\.genblk1\.genblk1\.genblk1\.genblk1\.uff\.ff\.q
*91 Petros_Game_of_Life\.shift\.genblk1\[1\]\.genblk1\.genblk1\.genblk1\.genblk1\.genblk1\.uff\.ff\.q
*92 Petros_Game_of_Life\.shift\.genblk1\[20\]\.genblk1\.genblk1\.genblk1\.genblk1\.genblk1\.genblk1\.genblk1\.genblk1\.ff\.add\.n5
*93 Petros_Game_of_Life\.shift\.genblk1\[20\]\.genblk1\.genblk1\.genblk1\.genblk1\.genblk1\.genblk1\.genblk1\.genblk1\.uff\.ff\.q
*94 Petros_Game_of_Life\.shift\.genblk1\[21\]\.genblk1\.genblk1\.genblk1\.genblk1\.genblk1\.genblk1\.genblk1\.genblk1\.ff\.add\.n5
*95 Petros_Game_of_Life\.shift\.genblk1\[21\]\.genblk1\.genblk1\.genblk1\.genblk1\.genblk1\.genblk1\.genblk1\.genblk1\.uff\.ff\.q
*96 Petros_Game_of_Life\.shift\.genblk1\[22\]\.genblk1\.genblk1\.genblk1\.genblk1\.genblk1\.genblk1\.genblk1\.genblk1\.ff\.add\.n5
*97 Petros_Game_of_Life\.shift\.genblk1\[22\]\.genblk1\.genblk1\.genblk1\.genblk1\.genblk1\.genblk1\.genblk1\.genblk1\.uff\.ff\.q
*98 Petros_Game_of_Life\.shift\.genblk1\[23\]\.genblk1\.genblk1\.genblk1\.genblk1\.genblk1\.genblk1\.genblk1\.uff\.ff\.q
*99 Petros_Game_of_Life\.shift\.genblk1\[24\]\.genblk1\.genblk1\.genblk1\.genblk1\.genblk1\.genblk1\.ff\.add\.n4
*100 Petros_Game_of_Life\.shift\.genblk1\[24\]\.genblk1\.genblk1\.genblk1\.genblk1\.genblk1\.genblk1\.ff\.add\.n5
*101 Petros_Game_of_Life\.shift\.genblk1\[24\]\.genblk1\.genblk1\.genblk1\.genblk1\.genblk1\.genblk1\.uff\.ff\.q
*102 Petros_Game_of_Life\.shift\.genblk1\[25\]\.genblk1\.genblk1\.genblk1\.genblk1\.genblk1\.genblk1\.genblk1\.genblk1\.ff\.add\.n5
*103 Petros_Game_of_Life\.shift\.genblk1\[25\]\.genblk1\.genblk1\.genblk1\.genblk1\.genblk1\.genblk1\.genblk1\.genblk1\.uff\.ff\.q
*104 Petros_Game_of_Life\.shift\.genblk1\[26\]\.genblk1\.genblk1\.genblk1\.genblk1\.genblk1\.genblk1\.genblk1\.genblk1\.ff\.add\.n5
*105 Petros_Game_of_Life\.shift\.genblk1\[26\]\.genblk1\.genblk1\.genblk1\.genblk1\.genblk1\.genblk1\.genblk1\.genblk1\.uff\.ff\.q
*106 Petros_Game_of_Life\.shift\.genblk1\[27\]\.genblk1\.genblk1\.genblk1\.genblk1\.genblk1\.genblk1\.genblk1\.genblk1\.ff\.add\.n5
*107 Petros_Game_of_Life\.shift\.genblk1\[27\]\.genblk1\.genblk1\.genblk1\.genblk1\.genblk1\.genblk1\.genblk1\.genblk1\.uff\.ff\.q
*108 Petros_Game_of_Life\.shift\.genblk1\[28\]\.genblk1\.genblk1\.genblk1\.genblk1\.genblk1\.genblk1\.genblk1\.genblk1\.ff\.add\.n5
*109 Petros_Game_of_Life\.shift\.genblk1\[28\]\.genblk1\.genblk1\.genblk1\.genblk1\.genblk1\.genblk1\.genblk1\.genblk1\.uff\.ff\.q
*110 Petros_Game_of_Life\.shift\.genblk1\[29\]\.genblk1\.genblk1\.genblk1\.genblk1\.genblk1\.genblk1\.genblk1\.genblk1\.ff\.add\.n5
*111 Petros_Game_of_Life\.shift\.genblk1\[29\]\.genblk1\.genblk1\.genblk1\.genblk1\.genblk1\.genblk1\.genblk1\.genblk1\.uff\.ff\.q
*112 Petros_Game_of_Life\.shift\.genblk1\[2\]\.genblk1\.genblk1\.genblk1\.genblk1\.genblk1\.uff\.ff\.q
*113 Petros_Game_of_Life\.shift\.genblk1\[30\]\.genblk1\.genblk1\.genblk1\.genblk1\.genblk1\.genblk1\.genblk1\.genblk1\.ff\.add\.n5
*114 Petros_Game_of_Life\.shift\.genblk1\[30\]\.genblk1\.genblk1\.genblk1\.genblk1\.genblk1\.genblk1\.genblk1\.genblk1\.uff\.ff\.q
*115 Petros_Game_of_Life\.shift\.genblk1\[31\]\.genblk1\.genblk1\.genblk1\.genblk1\.genblk1\.genblk1\.genblk1\.uff\.ff\.q
*116 Petros_Game_of_Life\.shift\.genblk1\[32\]\.genblk1\.genblk1\.genblk1\.genblk1\.genblk1\.genblk1\.ff\.add\.n4
*117 Petros_Game_of_Life\.shift\.genblk1\[32\]\.genblk1\.genblk1\.genblk1\.genblk1\.genblk1\.genblk1\.ff\.add\.n5
*118 Petros_Game_of_Life\.shift\.genblk1\[32\]\.genblk1\.genblk1\.genblk1\.genblk1\.genblk1\.genblk1\.uff\.ff\.q
*119 Petros_Game_of_Life\.shift\.genblk1\[33\]\.genblk1\.genblk1\.genblk1\.genblk1\.genblk1\.genblk1\.genblk1\.genblk1\.ff\.add\.n5
*120 Petros_Game_of_Life\.shift\.genblk1\[33\]\.genblk1\.genblk1\.genblk1\.genblk1\.genblk1\.genblk1\.genblk1\.genblk1\.uff\.ff\.q
*121 Petros_Game_of_Life\.shift\.genblk1\[34\]\.genblk1\.genblk1\.genblk1\.genblk1\.genblk1\.genblk1\.genblk1\.genblk1\.ff\.add\.n5
*122 Petros_Game_of_Life\.shift\.genblk1\[34\]\.genblk1\.genblk1\.genblk1\.genblk1\.genblk1\.genblk1\.genblk1\.genblk1\.uff\.ff\.q
*123 Petros_Game_of_Life\.shift\.genblk1\[35\]\.genblk1\.genblk1\.genblk1\.genblk1\.genblk1\.genblk1\.genblk1\.genblk1\.ff\.add\.n5
*124 Petros_Game_of_Life\.shift\.genblk1\[35\]\.genblk1\.genblk1\.genblk1\.genblk1\.genblk1\.genblk1\.genblk1\.genblk1\.uff\.ff\.q
*125 Petros_Game_of_Life\.shift\.genblk1\[36\]\.genblk1\.genblk1\.genblk1\.genblk1\.genblk1\.genblk1\.genblk1\.genblk1\.ff\.add\.n5
*126 Petros_Game_of_Life\.shift\.genblk1\[36\]\.genblk1\.genblk1\.genblk1\.genblk1\.genblk1\.genblk1\.genblk1\.genblk1\.uff\.ff\.q
*127 Petros_Game_of_Life\.shift\.genblk1\[37\]\.genblk1\.genblk1\.genblk1\.genblk1\.genblk1\.genblk1\.genblk1\.genblk1\.ff\.add\.n5
*128 Petros_Game_of_Life\.shift\.genblk1\[37\]\.genblk1\.genblk1\.genblk1\.genblk1\.genblk1\.genblk1\.genblk1\.genblk1\.uff\.ff\.q
*129 Petros_Game_of_Life\.shift\.genblk1\[38\]\.genblk1\.genblk1\.genblk1\.genblk1\.genblk1\.genblk1\.genblk1\.genblk1\.ff\.add\.n5
*130 Petros_Game_of_Life\.shift\.genblk1\[38\]\.genblk1\.genblk1\.genblk1\.genblk1\.genblk1\.genblk1\.genblk1\.genblk1\.uff\.ff\.q
*131 Petros_Game_of_Life\.shift\.genblk1\[39\]\.genblk1\.genblk1\.genblk1\.genblk1\.genblk1\.genblk1\.genblk1\.uff\.ff\.q
*132 Petros_Game_of_Life\.shift\.genblk1\[3\]\.genblk1\.genblk1\.genblk1\.genblk1\.genblk1\.uff\.ff\.q
*133 Petros_Game_of_Life\.shift\.genblk1\[40\]\.genblk1\.genblk1\.genblk1\.genblk1\.genblk1\.genblk1\.ff\.add\.n4
*134 Petros_Game_of_Life\.shift\.genblk1\[40\]\.genblk1\.genblk1\.genblk1\.genblk1\.genblk1\.genblk1\.ff\.add\.n5
*135 Petros_Game_of_Life\.shift\.genblk1\[40\]\.genblk1\.genblk1\.genblk1\.genblk1\.genblk1\.genblk1\.uff\.ff\.q
*136 Petros_Game_of_Life\.shift\.genblk1\[41\]\.genblk1\.genblk1\.genblk1\.genblk1\.genblk1\.genblk1\.genblk1\.genblk1\.ff\.add\.n5
*137 Petros_Game_of_Life\.shift\.genblk1\[41\]\.genblk1\.genblk1\.genblk1\.genblk1\.genblk1\.genblk1\.genblk1\.genblk1\.uff\.ff\.q
*138 Petros_Game_of_Life\.shift\.genblk1\[42\]\.genblk1\.genblk1\.genblk1\.genblk1\.genblk1\.genblk1\.genblk1\.genblk1\.ff\.add\.n5
*139 Petros_Game_of_Life\.shift\.genblk1\[42\]\.genblk1\.genblk1\.genblk1\.genblk1\.genblk1\.genblk1\.genblk1\.genblk1\.uff\.ff\.q
*140 Petros_Game_of_Life\.shift\.genblk1\[43\]\.genblk1\.genblk1\.genblk1\.genblk1\.genblk1\.genblk1\.genblk1\.genblk1\.ff\.add\.n5
*141 Petros_Game_of_Life\.shift\.genblk1\[43\]\.genblk1\.genblk1\.genblk1\.genblk1\.genblk1\.genblk1\.genblk1\.genblk1\.uff\.ff\.q
*142 Petros_Game_of_Life\.shift\.genblk1\[44\]\.genblk1\.genblk1\.genblk1\.genblk1\.genblk1\.genblk1\.genblk1\.genblk1\.ff\.add\.n5
*143 Petros_Game_of_Life\.shift\.genblk1\[44\]\.genblk1\.genblk1\.genblk1\.genblk1\.genblk1\.genblk1\.genblk1\.genblk1\.uff\.ff\.q
*144 Petros_Game_of_Life\.shift\.genblk1\[45\]\.genblk1\.genblk1\.genblk1\.genblk1\.genblk1\.genblk1\.genblk1\.genblk1\.ff\.add\.n5
*145 Petros_Game_of_Life\.shift\.genblk1\[45\]\.genblk1\.genblk1\.genblk1\.genblk1\.genblk1\.genblk1\.genblk1\.genblk1\.uff\.ff\.q
*146 Petros_Game_of_Life\.shift\.genblk1\[46\]\.genblk1\.genblk1\.genblk1\.genblk1\.genblk1\.genblk1\.genblk1\.genblk1\.ff\.add\.n5
*147 Petros_Game_of_Life\.shift\.genblk1\[46\]\.genblk1\.genblk1\.genblk1\.genblk1\.genblk1\.genblk1\.genblk1\.genblk1\.uff\.ff\.q
*148 Petros_Game_of_Life\.shift\.genblk1\[47\]\.genblk1\.genblk1\.genblk1\.genblk1\.genblk1\.genblk1\.genblk1\.uff\.ff\.q
*149 Petros_Game_of_Life\.shift\.genblk1\[48\]\.genblk1\.genblk1\.genblk1\.genblk1\.genblk1\.genblk1\.ff\.add\.n4
*150 Petros_Game_of_Life\.shift\.genblk1\[48\]\.genblk1\.genblk1\.genblk1\.genblk1\.genblk1\.genblk1\.ff\.add\.n5
*151 Petros_Game_of_Life\.shift\.genblk1\[48\]\.genblk1\.genblk1\.genblk1\.genblk1\.genblk1\.genblk1\.uff\.ff\.q
*152 Petros_Game_of_Life\.shift\.genblk1\[49\]\.genblk1\.genblk1\.genblk1\.genblk1\.genblk1\.genblk1\.genblk1\.genblk1\.ff\.add\.n5
*153 Petros_Game_of_Life\.shift\.genblk1\[49\]\.genblk1\.genblk1\.genblk1\.genblk1\.genblk1\.genblk1\.genblk1\.genblk1\.uff\.ff\.q
*154 Petros_Game_of_Life\.shift\.genblk1\[4\]\.genblk1\.genblk1\.genblk1\.genblk1\.genblk1\.uff\.ff\.q
*155 Petros_Game_of_Life\.shift\.genblk1\[50\]\.genblk1\.genblk1\.genblk1\.genblk1\.genblk1\.genblk1\.genblk1\.genblk1\.ff\.add\.n5
*156 Petros_Game_of_Life\.shift\.genblk1\[50\]\.genblk1\.genblk1\.genblk1\.genblk1\.genblk1\.genblk1\.genblk1\.genblk1\.uff\.ff\.q
*157 Petros_Game_of_Life\.shift\.genblk1\[51\]\.genblk1\.genblk1\.genblk1\.genblk1\.genblk1\.genblk1\.genblk1\.genblk1\.ff\.add\.n5
*158 Petros_Game_of_Life\.shift\.genblk1\[51\]\.genblk1\.genblk1\.genblk1\.genblk1\.genblk1\.genblk1\.genblk1\.genblk1\.uff\.ff\.q
*159 Petros_Game_of_Life\.shift\.genblk1\[52\]\.genblk1\.genblk1\.genblk1\.genblk1\.genblk1\.genblk1\.genblk1\.genblk1\.ff\.add\.n5
*160 Petros_Game_of_Life\.shift\.genblk1\[52\]\.genblk1\.genblk1\.genblk1\.genblk1\.genblk1\.genblk1\.genblk1\.genblk1\.uff\.ff\.q
*161 Petros_Game_of_Life\.shift\.genblk1\[53\]\.genblk1\.genblk1\.genblk1\.genblk1\.genblk1\.genblk1\.genblk1\.genblk1\.ff\.add\.n5
*162 Petros_Game_of_Life\.shift\.genblk1\[53\]\.genblk1\.genblk1\.genblk1\.genblk1\.genblk1\.genblk1\.genblk1\.genblk1\.uff\.ff\.q
*163 Petros_Game_of_Life\.shift\.genblk1\[54\]\.genblk1\.genblk1\.genblk1\.genblk1\.genblk1\.genblk1\.genblk1\.genblk1\.ff\.add\.n5
*164 Petros_Game_of_Life\.shift\.genblk1\[54\]\.genblk1\.genblk1\.genblk1\.genblk1\.genblk1\.genblk1\.genblk1\.genblk1\.uff\.ff\.q
*165 Petros_Game_of_Life\.shift\.genblk1\[55\]\.genblk1\.genblk1\.genblk1\.genblk1\.genblk1\.genblk1\.genblk1\.uff\.ff\.q
*166 Petros_Game_of_Life\.shift\.genblk1\[56\]\.genblk1\.genblk1\.genblk1\.uff\.ff\.q
*167 Petros_Game_of_Life\.shift\.genblk1\[57\]\.genblk1\.genblk1\.genblk1\.genblk1\.genblk1\.genblk1\.genblk1\.genblk1\.uff\.ff\.q
*168 Petros_Game_of_Life\.shift\.genblk1\[58\]\.genblk1\.genblk1\.genblk1\.genblk1\.genblk1\.genblk1\.genblk1\.genblk1\.uff\.ff\.q
*169 Petros_Game_of_Life\.shift\.genblk1\[59\]\.genblk1\.genblk1\.genblk1\.genblk1\.genblk1\.genblk1\.genblk1\.genblk1\.uff\.ff\.q
*170 Petros_Game_of_Life\.shift\.genblk1\[5\]\.genblk1\.genblk1\.genblk1\.genblk1\.genblk1\.uff\.ff\.q
*171 Petros_Game_of_Life\.shift\.genblk1\[60\]\.genblk1\.genblk1\.genblk1\.genblk1\.genblk1\.genblk1\.genblk1\.genblk1\.uff\.ff\.q
*172 Petros_Game_of_Life\.shift\.genblk1\[61\]\.genblk1\.genblk1\.genblk1\.genblk1\.genblk1\.genblk1\.genblk1\.genblk1\.uff\.ff\.q
*173 Petros_Game_of_Life\.shift\.genblk1\[62\]\.genblk1\.genblk1\.genblk1\.genblk1\.genblk1\.genblk1\.genblk1\.genblk1\.uff\.ff\.q
*174 Petros_Game_of_Life\.shift\.genblk1\[63\]\.genblk1\.genblk1\.genblk1\.genblk1\.uff\.ff\.q
*175 Petros_Game_of_Life\.shift\.genblk1\[6\]\.genblk1\.genblk1\.genblk1\.genblk1\.genblk1\.uff\.ff\.q
*176 Petros_Game_of_Life\.shift\.genblk1\[7\]\.genblk1\.genblk1\.uff\.ff\.q
*177 Petros_Game_of_Life\.shift\.genblk1\[8\]\.genblk1\.genblk1\.genblk1\.genblk1\.genblk1\.genblk1\.uff\.ff\.q
*178 _0000_
*179 _0001_
*180 _0002_
*181 _0003_
*182 _0004_
*183 _0005_
*184 _0006_
*185 _0007_
*186 _0008_
*187 _0009_
*188 _0010_
*189 _0011_
*190 _0012_
*191 _0013_
*192 _0014_
*193 _0015_
*194 _0016_
*195 _0017_
*196 _0018_
*197 _0019_
*198 _0020_
*199 _0021_
*200 _0022_
*201 _0023_
*202 _0024_
*203 _0025_
*204 _0026_
*205 _0027_
*206 _0028_
*207 _0029_
*208 _0030_
*209 _0031_
*210 _0032_
*211 _0033_
*212 _0034_
*213 _0035_
*214 _0036_
*215 _0037_
*216 _0038_
*217 _0039_
*218 _0040_
*219 _0041_
*220 _0042_
*221 _0043_
*222 _0044_
*223 _0045_
*224 _0046_
*225 _0047_
*226 _0048_
*227 _0049_
*228 _0050_
*229 _0051_
*230 _0052_
*231 _0053_
*232 _0054_
*233 _0055_
*234 _0056_
*235 _0057_
*236 _0058_
*237 _0059_
*238 _0060_
*239 _0061_
*240 _0062_
*241 _0063_
*242 _0064_
*243 _0065_
*244 _0066_
*245 _0067_
*246 _0068_
*247 _0069_
*248 _0070_
*249 _0071_
*250 _0072_
*251 _0073_
*252 _0074_
*253 _0075_
*254 _0076_
*255 _0077_
*256 _0078_
*257 _0079_
*258 _0080_
*259 _0081_
*260 _0082_
*261 _0083_
*262 _0084_
*263 _0085_
*264 _0086_
*265 _0087_
*266 _0088_
*267 _0089_
*268 _0090_
*269 _0091_
*270 _0092_
*271 _0093_
*272 _0094_
*273 _0095_
*274 _0096_
*275 _0097_
*276 _0098_
*277 _0099_
*278 _0100_
*279 _0101_
*280 _0102_
*281 _0103_
*282 _0104_
*283 _0105_
*284 _0106_
*285 _0107_
*286 _0108_
*287 _0109_
*288 _0110_
*289 _0111_
*290 _0112_
*291 _0113_
*292 _0114_
*293 _0115_
*294 _0116_
*295 _0117_
*296 _0118_
*297 _0119_
*298 _0120_
*299 _0121_
*300 _0122_
*301 _0123_
*302 _0124_
*303 _0125_
*304 _0126_
*305 _0127_
*306 _0128_
*307 _0129_
*308 _0130_
*309 _0131_
*310 _0132_
*311 _0133_
*312 _0134_
*313 _0135_
*314 _0136_
*315 _0137_
*316 _0138_
*317 _0139_
*318 _0140_
*319 _0141_
*320 _0142_
*321 _0143_
*322 _0144_
*323 _0145_
*324 _0146_
*325 _0147_
*326 _0148_
*327 _0149_
*328 _0150_
*329 _0151_
*330 _0152_
*331 _0153_
*332 _0154_
*333 _0155_
*334 _0156_
*335 _0157_
*336 _0158_
*337 _0159_
*338 _0160_
*339 _0161_
*340 _0162_
*341 _0163_
*342 _0164_
*343 _0165_
*344 _0166_
*345 _0167_
*346 _0168_
*347 _0169_
*348 _0170_
*349 _0171_
*350 _0172_
*351 _0173_
*352 _0174_
*353 _0175_
*354 _0176_
*355 _0177_
*356 _0178_
*357 _0179_
*358 _0180_
*359 _0181_
*360 _0182_
*361 _0183_
*362 _0184_
*363 _0185_
*364 _0186_
*365 _0187_
*366 _0188_
*367 _0189_
*368 _0190_
*369 _0191_
*370 _0192_
*371 _0193_
*372 _0194_
*373 _0195_
*374 _0196_
*375 _0197_
*376 _0198_
*377 _0199_
*378 _0200_
*379 _0201_
*380 _0202_
*381 _0203_
*382 _0204_
*383 _0205_
*384 _0206_
*385 _0207_
*386 _0208_
*387 _0209_
*388 _0210_
*389 _0211_
*390 _0212_
*391 _0213_
*392 _0214_
*393 _0215_
*394 _0216_
*395 _0217_
*396 _0218_
*397 _0219_
*398 _0220_
*399 _0221_
*400 _0222_
*401 _0223_
*402 _0224_
*403 _0225_
*404 _0226_
*405 _0227_
*406 _0228_
*407 _0229_
*408 _0230_
*409 _0231_
*410 _0232_
*411 _0233_
*412 _0234_
*413 _0235_
*414 _0236_
*415 _0237_
*416 _0238_
*417 _0239_
*418 _0240_
*419 _0241_
*420 _0242_
*421 _0243_
*422 _0244_
*423 _0245_
*424 _0246_
*425 _0247_
*426 _0248_
*427 _0249_
*428 _0250_
*429 _0251_
*430 _0252_
*431 _0253_
*432 _0254_
*433 _0255_
*434 _0256_
*435 _0257_
*436 _0258_
*437 _0259_
*438 _0260_
*439 _0261_
*440 _0262_
*441 _0263_
*442 _0264_
*443 _0265_
*444 _0266_
*445 _0267_
*446 _0268_
*447 _0269_
*448 _0270_
*449 _0271_
*450 _0272_
*451 _0273_
*452 _0274_
*453 _0275_
*454 _0276_
*455 _0277_
*456 _0278_
*457 _0279_
*458 _0280_
*459 _0281_
*460 _0282_
*461 _0283_
*462 _0284_
*463 _0285_
*464 _0286_
*465 _0287_
*466 _0288_
*467 _0289_
*468 _0290_
*469 _0291_
*470 _0292_
*471 _0293_
*472 _0294_
*473 _0295_
*474 _0296_
*475 _0297_
*476 _0298_
*477 _0299_
*478 _0300_
*479 _0301_
*480 _0302_
*481 _0303_
*482 _0304_
*483 _0305_
*484 _0306_
*485 _0307_
*486 _0308_
*487 _0309_
*488 _0310_
*489 _0311_
*490 _0312_
*491 _0313_
*492 _0314_
*493 _0315_
*494 _0316_
*495 _0317_
*496 _0318_
*497 _0319_
*498 _0320_
*499 _0321_
*500 _0322_
*501 _0323_
*502 _0324_
*503 _0325_
*504 _0326_
*505 _0327_
*506 _0328_
*507 _0329_
*508 _0330_
*509 _0331_
*510 _0332_
*511 _0333_
*512 _0334_
*513 _0335_
*514 _0336_
*515 _0337_
*516 _0338_
*517 _0339_
*518 _0340_
*519 _0341_
*520 _0342_
*521 _0343_
*522 _0344_
*523 _0345_
*524 _0346_
*525 _0347_
*526 _0348_
*527 _0349_
*528 _0350_
*529 _0351_
*530 _0352_
*531 _0353_
*532 _0354_
*533 _0355_
*534 _0356_
*535 _0357_
*536 _0358_
*537 _0359_
*538 _0360_
*539 _0361_
*540 _0362_
*541 _0363_
*542 _0364_
*543 _0365_
*544 _0366_
*545 _0367_
*546 _0368_
*547 _0369_
*548 _0370_
*549 _0371_
*550 _0372_
*551 _0373_
*552 _0374_
*553 _0375_
*554 _0376_
*555 _0377_
*556 _0378_
*557 _0379_
*558 _0380_
*559 _0381_
*560 _0382_
*561 _0383_
*562 _0384_
*563 _0385_
*564 _0386_
*565 _0387_
*566 _0388_
*567 _0389_
*568 _0390_
*569 _0391_
*570 _0392_
*571 _0393_
*572 _0394_
*573 _0395_
*574 _0396_
*575 _0397_
*576 _0398_
*577 _0399_
*578 _0400_
*579 _0401_
*580 _0402_
*581 _0403_
*582 _0404_
*583 _0405_
*584 _0406_
*585 _0407_
*586 _0408_
*587 _0409_
*588 _0410_
*589 _0411_
*590 _0412_
*591 _0413_
*592 _0414_
*593 _0415_
*594 _0416_
*595 _0417_
*596 _0418_
*597 _0419_
*598 _0420_
*599 _0421_
*600 _0422_
*601 _0423_
*602 _0424_
*603 _0425_
*604 _0426_
*605 _0427_
*606 _0428_
*607 _0429_
*608 _0430_
*609 _0431_
*610 _0432_
*611 _0433_
*612 _0434_
*613 _0435_
*614 _0436_
*615 _0437_
*616 _0438_
*617 _0439_
*618 _0440_
*619 _0441_
*620 _0442_
*621 _0443_
*622 _0444_
*623 _0445_
*624 _0446_
*625 _0447_
*626 _0448_
*627 _0449_
*628 _0450_
*629 _0451_
*630 _0452_
*631 _0453_
*632 _0454_
*633 _0455_
*634 _0456_
*635 _0457_
*636 _0458_
*637 _0459_
*638 _0460_
*639 _0461_
*640 _0462_
*641 _0463_
*642 _0464_
*643 _0465_
*644 _0466_
*645 _0467_
*646 _0468_
*647 _0469_
*648 _0470_
*649 _0471_
*650 _0472_
*651 _0473_
*652 _0474_
*653 _0475_
*654 _0476_
*655 _0477_
*656 _0478_
*657 _0479_
*658 _0480_
*659 _0481_
*660 _0482_
*661 _0483_
*662 _0484_
*663 _0485_
*664 _0486_
*665 _0487_
*666 _0488_
*667 _0489_
*668 _0490_
*669 _0491_
*670 _0492_
*671 _0493_
*672 _0494_
*673 _0495_
*674 _0496_
*675 _0497_
*676 _0498_
*677 _0499_
*678 _0500_
*679 _0501_
*680 _0502_
*681 _0503_
*682 _0504_
*683 _0505_
*684 _0506_
*685 _0507_
*686 _0508_
*687 _0509_
*688 _0510_
*689 _0511_
*690 _0512_
*691 _0513_
*692 _0514_
*693 _0515_
*694 _0516_
*695 _0517_
*696 _0518_
*697 _0519_
*698 _0520_
*699 _0521_
*700 _0522_
*701 _0523_
*702 _0524_
*703 _0525_
*704 _0526_
*705 _0527_
*706 _0528_
*707 _0529_
*708 _0530_
*709 _0531_
*710 _0532_
*711 _0533_
*712 _0534_
*713 _0535_
*714 _0536_
*715 _0537_
*716 _0538_
*717 _0539_
*718 _0540_
*719 _0541_
*720 _0542_
*721 _0543_
*722 _0544_
*723 _0545_
*724 _0546_
*725 _0547_
*726 _0548_
*727 _0549_
*728 _0550_
*729 _0551_
*730 _0552_
*731 _0553_
*732 _0554_
*733 _0555_
*734 _0556_
*735 _0557_
*736 _0558_
*737 _0559_
*738 _0560_
*739 _0561_
*740 _0562_
*741 _0563_
*742 _0564_
*743 _0565_
*744 _0566_
*745 _0567_
*746 _0568_
*747 _0569_
*748 _0570_
*749 _0571_
*750 _0572_
*751 _0573_
*752 _0574_
*753 _0575_
*754 _0576_
*755 _0577_
*756 _0578_
*757 _0579_
*758 _0580_
*759 _0581_
*760 _0582_
*761 _0583_
*762 _0584_
*763 _0585_
*764 _0586_
*765 _0587_
*766 _0588_
*767 _0589_
*768 _0590_
*769 _0591_
*770 _0592_
*771 _0593_
*772 _0594_
*773 _0595_
*774 _0596_
*775 _0597_
*776 _0598_
*777 _0599_
*778 _0600_
*779 _0601_
*780 _0602_
*781 _0603_
*782 _0604_
*783 _0605_
*784 _0606_
*785 _0607_
*786 _0608_
*787 _0609_
*788 _0610_
*789 _0611_
*790 _0612_
*791 _0613_
*792 _0614_
*793 _0615_
*794 _0616_
*795 _0617_
*796 _0618_
*797 _0619_
*798 _0620_
*799 _0621_
*800 _0622_
*801 _0623_
*802 _0624_
*803 _0625_
*804 _0626_
*805 _0627_
*806 _0628_
*807 _0629_
*808 _0630_
*809 _0631_
*810 _0632_
*811 _0633_
*812 _0634_
*813 _0635_
*814 _0636_
*815 _0637_
*816 _0638_
*817 _0639_
*818 _0640_
*819 _0641_
*820 _0642_
*821 _0643_
*822 _0644_
*823 _0645_
*824 _0646_
*825 _0647_
*826 _0648_
*827 _0649_
*828 _0650_
*829 _0651_
*830 _0652_
*831 _0653_
*832 _0654_
*833 _0655_
*834 _0656_
*835 _0657_
*836 _0658_
*837 _0659_
*838 _0660_
*839 _0661_
*840 _0662_
*841 _0663_
*842 _0664_
*843 _0665_
*844 _0666_
*845 _0667_
*846 _0668_
*847 _0669_
*848 _0670_
*849 _0671_
*850 _0672_
*851 _0673_
*852 _0674_
*853 _0675_
*854 _0676_
*855 _0677_
*856 _0678_
*857 _0679_
*858 _0680_
*859 _0681_
*860 _0682_
*861 _0683_
*862 _0684_
*863 _0685_
*864 _0686_
*865 _0687_
*866 _0688_
*867 _0689_
*868 _0690_
*869 _0691_
*870 _0692_
*871 _0693_
*872 _0694_
*873 _0695_
*874 _0696_
*875 _0697_
*876 _0698_
*877 _0699_
*878 _0700_
*879 _0701_
*880 _0702_
*881 _0703_
*882 _0704_
*883 _0705_
*884 _0706_
*885 _0707_
*886 _0708_
*887 _0709_
*888 _0710_
*889 _0711_
*890 _0712_
*891 _0713_
*892 _0714_
*893 _0715_
*894 _0716_
*895 _0717_
*896 _0718_
*897 _0719_
*898 _0720_
*899 _0721_
*900 _0722_
*901 _0723_
*902 _0724_
*903 _0725_
*904 _0726_
*905 _0727_
*906 _0728_
*907 _0729_
*908 _0730_
*909 _0731_
*910 _0732_
*911 _0733_
*912 _0734_
*913 _0735_
*914 _0736_
*915 _0737_
*916 _0738_
*917 _0739_
*918 _0740_
*919 _0741_
*920 _0742_
*921 _0743_
*922 _0744_
*923 _0745_
*924 _0746_
*925 _0747_
*926 _0748_
*927 _0749_
*928 _0750_
*929 _0751_
*930 _0752_
*931 _0753_
*932 _0754_
*933 _0755_
*934 _0756_
*935 _0757_
*936 _0758_
*937 _0759_
*938 _0760_
*939 _0761_
*940 _0762_
*941 _0763_
*942 _0764_
*943 _0765_
*944 _0766_
*945 _0767_
*946 _0768_
*947 _0769_
*948 _0770_
*949 _0771_
*950 _0772_
*951 _0773_
*952 _0774_
*953 _0775_
*954 _0776_
*955 _0777_
*956 _0778_
*957 _0779_
*958 _0780_
*959 _0781_
*960 _0782_
*961 _0783_
*962 _0784_
*963 _0785_
*964 _0786_
*965 _0787_
*966 _0788_
*967 _0789_
*968 _0790_
*969 _0791_
*970 _0792_
*971 _0793_
*972 _0794_
*973 _0795_
*974 _0796_
*975 _0797_
*976 _0798_
*977 _0799_
*978 _0800_
*979 _0801_
*980 _0802_
*981 _0803_
*982 _0804_
*983 _0805_
*984 _0806_
*985 _0807_
*986 _0808_
*987 _0809_
*988 _0810_
*989 _0811_
*990 _0812_
*991 _0813_
*992 _0814_
*993 _0815_
*994 _0816_
*995 _0817_
*996 _0818_
*997 _0819_
*998 _0820_
*999 _0821_
*1000 _0822_
*1001 _0823_
*1002 _0824_
*1003 _0825_
*1004 _0826_
*1005 _0827_
*1006 _0828_
*1007 _0829_
*1008 _0830_
*1009 _0831_
*1010 _0832_
*1011 _0833_
*1012 _0834_
*1013 _0835_
*1014 _0836_
*1015 _0837_
*1016 _0838_
*1017 _0839_
*1018 _0840_
*1019 _0841_
*1020 _0842_
*1021 _0843_
*1022 _0844_
*1023 _0845_
*1024 _0846_
*1025 _0847_
*1026 _0848_
*1027 _0849_
*1028 _0850_
*1029 _0851_
*1030 _0852_
*1031 _0853_
*1032 _0854_
*1033 _0855_
*1034 _0856_
*1035 _0857_
*1036 _0858_
*1037 _0859_
*1038 _0860_
*1039 _0861_
*1040 _0862_
*1041 _0863_
*1042 _0864_
*1043 _0865_
*1044 _0866_
*1045 _0867_
*1046 _0868_
*1047 _0869_
*1048 _0870_
*1049 _0871_
*1050 _0872_
*1051 _0873_
*1052 _0874_
*1053 _0875_
*1054 _0876_
*1055 _0877_
*1056 _0878_
*1057 _0879_
*1058 _0880_
*1059 _0881_
*1060 _0882_
*1061 _0883_
*1062 _0884_
*1063 _0885_
*1064 _0886_
*1065 _0887_
*1066 _0888_
*1067 _0889_
*1068 _0890_
*1069 _0891_
*1070 _0892_
*1071 _0893_
*1072 _0894_
*1073 _0895_
*1074 _0896_
*1075 _0897_
*1076 _0898_
*1077 _0899_
*1078 _0900_
*1079 _0901_
*1080 _0902_
*1081 _0903_
*1082 _0904_
*1083 _0905_
*1084 _0906_
*1085 _0907_
*1086 _0908_
*1087 _0909_
*1088 _0910_
*1089 _0911_
*1090 _0912_
*1091 _0913_
*1092 _0914_
*1093 _0915_
*1094 _0916_
*1095 _0917_
*1096 _0918_
*1097 _0919_
*1098 _0920_
*1099 _0921_
*1100 _0922_
*1101 _0923_
*1102 _0924_
*1103 _0925_
*1104 _0926_
*1105 _0927_
*1106 _0928_
*1107 _0929_
*1108 _0930_
*1109 _0931_
*1110 _0932_
*1111 _0933_
*1112 _0934_
*1113 _0935_
*1114 _0936_
*1115 _0937_
*1116 _0938_
*1117 _0939_
*1118 _0940_
*1119 _0941_
*1120 _0942_
*1121 _0943_
*1122 _0944_
*1123 _0945_
*1124 _0946_
*1125 _0947_
*1126 _0948_
*1127 _0949_
*1128 _0950_
*1129 _0951_
*1130 _0952_
*1131 _0953_
*1132 _0954_
*1133 _0955_
*1134 _0956_
*1135 _0957_
*1136 _0958_
*1137 _0959_
*1138 _0960_
*1139 _0961_
*1140 _0962_
*1141 _0963_
*1142 _0964_
*1143 _0965_
*1144 _0966_
*1145 _0967_
*1146 _0968_
*1147 _0969_
*1148 _0970_
*1149 _0971_
*1150 _0972_
*1151 _0973_
*1152 _0974_
*1153 _0975_
*1154 _0976_
*1155 _0977_
*1156 _0978_
*1157 _0979_
*1158 _0980_
*1159 _0981_
*1160 _0982_
*1161 _0983_
*1162 _0984_
*1163 _0985_
*1164 _0986_
*1165 _0987_
*1166 _0988_
*1167 _0989_
*1168 _0990_
*1169 _0991_
*1170 _0992_
*1171 _0993_
*1172 _0994_
*1173 _0995_
*1174 _0996_
*1175 _0997_
*1176 _0998_
*1177 _0999_
*1178 _1000_
*1179 _1001_
*1180 _1002_
*1181 _1003_
*1182 _1004_
*1183 _1005_
*1184 _1006_
*1185 _1007_
*1186 _1008_
*1187 _1009_
*1188 _1010_
*1189 _1011_
*1190 _1012_
*1191 _1013_
*1192 _1014_
*1193 _1015_
*1194 _1016_
*1195 _1017_
*1196 _1018_
*1197 _1019_
*1198 _1020_
*1199 _1021_
*1200 _1022_
*1201 _1023_
*1202 _1024_
*1203 _1025_
*1204 _1026_
*1205 _1027_
*1206 _1028_
*1207 _1029_
*1208 _1030_
*1209 _1031_
*1210 _1032_
*1211 _1033_
*1212 _1034_
*1213 _1035_
*1214 _1036_
*1215 _1037_
*1216 _1038_
*1217 _1039_
*1218 _1040_
*1219 _1041_
*1220 _1042_
*1221 _1043_
*1222 _1044_
*1223 _1045_
*1224 _1046_
*1225 _1047_
*1226 _1048_
*1227 _1049_
*1228 _1050_
*1229 _1051_
*1230 _1052_
*1231 _1053_
*1232 _1054_
*1233 _1055_
*1234 _1056_
*1235 _1057_
*1236 _1058_
*1237 _1059_
*1238 _1060_
*1239 _1061_
*1240 _1062_
*1241 _1063_
*1242 _1064_
*1243 _1065_
*1244 _1066_
*1245 _1067_
*1246 _1068_
*1247 _1069_
*1248 _1070_
*1249 _1071_
*1250 _1072_
*1251 _1073_
*1252 _1074_
*1253 _1075_
*1254 _1076_
*1255 _1077_
*1256 _1078_
*1257 _1079_