*SPEF "ieee 1481-1999"
*DESIGN "tt_um_manjushettar"
*DATE "11:11:11 Fri 11 11, 1111"
*VENDOR "OpenRCX"
*PROGRAM "Parallel Extraction"
*VERSION "1.0"
*DESIGN_FLOW "NAME_SCOPE LOCAL" "PIN_CAP NONE"
*DIVIDER /
*DELIMITER :
*BUS_DELIMITER []
*T_UNIT 1 NS
*C_UNIT 1 PF
*R_UNIT 1 OHM
*L_UNIT 1 HENRY

*NAME_MAP
*3 clk
*4 ena
*5 rst_n
*6 ui_in[0]
*7 ui_in[1]
*8 ui_in[2]
*9 ui_in[3]
*10 ui_in[4]
*11 ui_in[5]
*12 ui_in[6]
*13 ui_in[7]
*14 uio_in[0]
*15 uio_in[1]
*16 uio_in[2]
*17 uio_in[3]
*18 uio_in[4]
*19 uio_in[5]
*20 uio_in[6]
*21 uio_in[7]
*22 net30
*23 net31
*24 net32
*25 net33
*26 net34
*27 net35
*28 net36
*29 net37
*30 net38
*31 net39
*32 net40
*33 net41
*34 net42
*35 net43
*36 net44
*37 net45
*38 uo_out[0]
*39 uo_out[1]
*40 net46
*41 net47
*42 net48
*43 net49
*44 net50
*45 net51
*46 _000_
*47 _001_
*48 _002_
*49 _003_
*50 _004_
*51 _011_
*52 _012_
*53 _013_
*54 _014_
*55 _015_
*56 _016_
*57 _017_
*58 _018_
*59 _020_
*60 _027_
*61 _028_
*62 _029_
*63 _030_
*64 _031_
*65 _032_
*66 _033_
*67 _034_
*68 _036_
*69 _037_
*70 _038_
*71 _039_
*72 _040_
*73 _041_
*74 _042_
*75 _043_
*76 _044_
*77 _045_
*78 _046_
*79 _047_
*80 _048_
*81 _049_
*82 _050_
*83 _051_
*84 _052_
*85 _053_
*86 _054_
*87 _055_
*88 _056_
*89 _057_
*90 _058_
*91 _059_
*92 _060_
*93 _061_
*94 _062_
*95 _063_
*96 _064_
*97 _065_
*98 _066_
*99 _067_
*100 _068_
*101 _069_
*102 _070_
*103 _071_
*104 _072_
*105 _073_
*106 _074_
*107 _075_
*108 _076_
*109 _077_
*110 _078_
*111 _079_
*112 _080_
*113 _081_
*114 _082_
*115 _083_
*116 _084_
*117 _085_
*118 _086_
*119 _087_
*120 _088_
*121 _089_
*122 _090_
*123 _091_
*124 _092_
*125 _093_
*126 _094_
*127 _095_
*128 _096_
*129 _097_
*130 _098_
*131 _099_
*132 _100_
*133 _101_
*134 _102_
*135 _103_
*136 _104_
*137 _105_
*138 _106_
*139 _107_
*140 _108_
*141 _109_
*142 _110_
*143 _111_
*144 _112_
*145 _113_
*146 _114_
*147 _115_
*148 _116_
*149 _117_
*150 _118_
*151 _119_
*152 _120_
*153 _121_
*154 _122_
*155 _123_
*156 _124_
*157 _125_
*158 _126_
*159 _127_
*160 _128_
*161 _129_
*162 _130_
*163 _131_
*164 _132_
*165 _133_
*166 _134_
*167 _135_
*168 _136_
*169 _137_
*170 _138_
*171 _139_
*172 _140_
*173 _141_
*174 _142_
*175 _143_
*176 _144_
*177 _145_
*178 _146_
*179 _147_
*180 _148_
*181 _149_
*182 _150_
*183 _151_
*184 _152_
*185 _153_
*186 _154_
*187 _155_
*188 _156_
*189 _157_
*190 _158_
*191 _159_
*192 _160_
*193 _161_
*194 _162_
*195 _163_
*196 _164_
*197 _165_
*198 _166_
*199 _167_
*200 _168_
*201 _169_
*202 _170_
*203 _171_
*204 _172_
*205 _173_
*206 _174_
*207 _175_
*208 _176_
*209 _177_
*210 _178_
*211 _179_
*212 _180_
*213 _181_
*214 _182_
*215 _183_
*216 _184_
*217 _185_
*218 _186_
*219 _187_
*220 _188_
*221 _189_
*222 _190_
*223 _191_
*224 _192_
*225 _193_
*226 _194_
*227 _195_
*228 _196_
*229 _197_
*230 _198_
*231 _199_
*232 clknet_0_clk
*233 clknet_3_0__leaf_clk
*234 clknet_3_1__leaf_clk
*235 clknet_3_2__leaf_clk
*236 clknet_3_3__leaf_clk
*237 clknet_3_4__leaf_clk
*238 clknet_3_5__leaf_clk
*239 clknet_3_6__leaf_clk
*240 clknet_3_7__leaf_clk
*241 net1
*242 net10
*243 net11
*244 net12
*245 net13
*246 net14
*247 net15
*248 net16
*249 net17
*250 net18
*251 net19
*252 net2
*253 net20
*254 net21
*255 net22
*256 net23
*257 net24
*258 net25
*259 net26
*260 net27
*261 net28
*262 net29
*263 net3
*264 net4
*265 net5
*266 net52
*267 net53
*268 net54
*269 net55
*270 net56
*271 net57
*272 net58
*273 net59
*274 net6
*275 net60
*276 net61
*277 net62
*278 net63
*279 net64
*280 net65
*281 net66
*282 net67
*283 net68
*284 net69
*285 net7
*286 net70
*287 net71
*288 net72
*289 net73
*290 net74
*291 net75
*292 net76
*293 net77
*294 net78
*295 net79
*296 net8
*297 net80
*298 net81
*299 net82
*300 net83
*301 net84
*302 net85
*303 net86
*304 net87
*305 net88
*306 net89
*307 net9
*308 net90
*309 net91
*310 net92
*311 net93
*312 net94
*313 neuron1_1\.accumulated_current\[0\]
*314 neuron1_1\.accumulated_current\[10\]
*315 neuron1_1\.accumulated_current\[11\]
*316 neuron1_1\.accumulated_current\[12\]
*317 neuron1_1\.accumulated_current\[13\]
*318 neuron1_1\.accumulated_current\[14\]
*319 neuron1_1\.accumulated_current\[15\]
*320 neuron1_1\.accumulated_current\[1\]
*321 neuron1_1\.accumulated_current\[2\]
*322 neuron1_1\.accumulated_current\[3\]
*323 neuron1_1\.accumulated_current\[4\]
*324 neuron1_1\.accumulated_current\[5\]
*325 neuron1_1\.accumulated_current\[6\]
*326 neuron1_1\.accumulated_current\[7\]
*327 neuron1_1\.accumulated_current\[8\]
*328 neuron1_1\.accumulated_current\[9\]
*329 neuron1_1\.spike
*330 neuron1_2\.accumulated_current\[0\]
*331 neuron1_2\.accumulated_current\[10\]
*332 neuron1_2\.accumulated_current\[11\]
*333 neuron1_2\.accumulated_current\[12\]
*334 neuron1_2\.accumulated_current\[13\]
*335 neuron1_2\.accumulated_current\[14\]
*336 neuron1_2\.accumulated_current\[15\]
*337 neuron1_2\.accumulated_current\[1\]
*338 neuron1_2\.accumulated_current\[2\]
*339 neuron1_2\.accumulated_current\[3\]
*340 neuron1_2\.accumulated_current\[4\]
*341 neuron1_2\.accumulated_current\[5\]
*342 neuron1_2\.accumulated_current\[6\]
*343 neuron1_2\.accumulated_current\[7\]
*344 neuron1_2\.accumulated_current\[8\]
*345 neuron1_2\.accumulated_current\[9\]
*346 neuron1_2\.spike
*347 neuron2_1\.accumulated_current\[0\]
*348 neuron2_1\.accumulated_current\[10\]
*349 neuron2_1\.accumulated_current\[11\]
*350 neuron2_1\.accumulated_current\[12\]
*351 neuron2_1\.accumulated_current\[13\]
*352 neuron2_1\.accumulated_current\[14\]
*353 neuron2_1\.accumulated_current\[15\]
*354 neuron2_1\.accumulated_current\[1\]
*355 neuron2_1\.accumulated_current\[2\]
*356 neuron2_1\.accumulated_current\[3\]
*357 neuron2_1\.accumulated_current\[4\]
*358 neuron2_1\.accumulated_current\[5\]
*359 neuron2_1\.accumulated_current\[6\]
*360 neuron2_1\.accumulated_current\[7\]
*361 neuron2_1\.accumulated_current\[8\]
*362 neuron2_1\.accumulated_current\[9\]
*363 neuron2_1\.spike
*364 neuron2_1\.spike_current\[0\]
*365 neuron2_2\.accumulated_current\[0\]
*366 neuron2_2\.accumulated_current\[10\]
*367 neuron2_2\.accumulated_current\[11\]
*368 neuron2_2\.accumulated_current\[12\]
*369 neuron2_2\.accumulated_current\[13\]
*370 neuron2_2\.accumulated_current\[14\]
*371 neuron2_2\.accumulated_current\[15\]
*372 neuron2_2\.accumulated_current\[1\]
*373 neuron2_2\.accumulated_current\[2\]
*374 neuron2_2\.accumulated_current\[3\]
*375 neuron2_2\.accumulated_current\[4\]
*376 neuron2_2\.accumulated_current\[5\]
*377 neuron2_2\.accumulated_current\[6\]
*378 neuron2_2\.accumulated_current\[7\]
*379 neuron2_2\.accumulated_current\[8\]
*380 neuron2_2\.accumulated_current\[9\]
*381 neuron2_2\.spike
*382 neuron2_2\.spike_current\[0\]
*383 FILLER_0_0_109
*384 FILLER_0_0_113
*385 FILLER_0_0_125
*386 FILLER_0_0_137
*387 FILLER_0_0_141
*388 FILLER_0_0_15
*389 FILLER_0_0_153
*390 FILLER_0_0_165
*391 FILLER_0_0_169
*392 FILLER_0_0_181
*393 FILLER_0_0_193
*394 FILLER_0_0_197
*395 FILLER_0_0_209
*396 FILLER_0_0_221
*397 FILLER_0_0_225
*398 FILLER_0_0_237
*399 FILLER_0_0_249
*400 FILLER_0_0_253
*401 FILLER_0_0_265
*402 FILLER_0_0_27
*403 FILLER_0_0_277
*404 FILLER_0_0_281
*405 FILLER_0_0_29
*406 FILLER_0_0_293
*407 FILLER_0_0_3
*408 FILLER_0_0_305
*409 FILLER_0_0_309
*410 FILLER_0_0_321
*411 FILLER_0_0_333
*412 FILLER_0_0_337
*413 FILLER_0_0_349
*414 FILLER_0_0_41
*415 FILLER_0_0_53
*416 FILLER_0_0_57
*417 FILLER_0_0_69
*418 FILLER_0_0_81
*419 FILLER_0_0_85
*420 FILLER_0_0_97
*421 FILLER_0_10_109
*422 FILLER_0_10_121
*423 FILLER_0_10_133
*424 FILLER_0_10_139
*425 FILLER_0_10_141
*426 FILLER_0_10_15
*427 FILLER_0_10_153
*428 FILLER_0_10_165
*429 FILLER_0_10_177
*430 FILLER_0_10_189
*431 FILLER_0_10_195
*432 FILLER_0_10_197
*433 FILLER_0_10_209
*434 FILLER_0_10_221
*435 FILLER_0_10_233
*436 FILLER_0_10_245
*437 FILLER_0_10_251
*438 FILLER_0_10_253
*439 FILLER_0_10_265
*440 FILLER_0_10_27
*441 FILLER_0_10_277
*442 FILLER_0_10_289
*443 FILLER_0_10_29
*444 FILLER_0_10_3
*445 FILLER_0_10_301
*446 FILLER_0_10_307
*447 FILLER_0_10_309
*448 FILLER_0_10_321
*449 FILLER_0_10_333
*450 FILLER_0_10_345
*451 FILLER_0_10_41
*452 FILLER_0_10_53
*453 FILLER_0_10_65
*454 FILLER_0_10_77
*455 FILLER_0_10_83
*456 FILLER_0_10_85
*457 FILLER_0_10_97
*458 FILLER_0_11_105
*459 FILLER_0_11_111
*460 FILLER_0_11_113
*461 FILLER_0_11_125
*462 FILLER_0_11_137
*463 FILLER_0_11_149
*464 FILLER_0_11_15
*465 FILLER_0_11_161
*466 FILLER_0_11_167
*467 FILLER_0_11_169
*468 FILLER_0_11_181
*469 FILLER_0_11_193
*470 FILLER_0_11_205
*471 FILLER_0_11_217
*472 FILLER_0_11_223
*473 FILLER_0_11_225
*474 FILLER_0_11_237
*475 FILLER_0_11_249
*476 FILLER_0_11_261
*477 FILLER_0_11_27
*478 FILLER_0_11_273
*479 FILLER_0_11_279
*480 FILLER_0_11_281
*481 FILLER_0_11_293
*482 FILLER_0_11_3
*483 FILLER_0_11_305
*484 FILLER_0_11_317
*485 FILLER_0_11_329
*486 FILLER_0_11_335
*487 FILLER_0_11_337
*488 FILLER_0_11_349
*489 FILLER_0_11_39
*490 FILLER_0_11_51
*491 FILLER_0_11_55
*492 FILLER_0_11_57
*493 FILLER_0_11_69
*494 FILLER_0_11_81
*495 FILLER_0_11_93
*496 FILLER_0_12_109
*497 FILLER_0_12_121
*498 FILLER_0_12_133
*499 FILLER_0_12_139
*500 FILLER_0_12_141
*501 FILLER_0_12_15
*502 FILLER_0_12_153
*503 FILLER_0_12_165
*504 FILLER_0_12_177
*505 FILLER_0_12_189
*506 FILLER_0_12_195
*507 FILLER_0_12_197
*508 FILLER_0_12_209
*509 FILLER_0_12_221
*510 FILLER_0_12_233
*511 FILLER_0_12_245
*512 FILLER_0_12_251
*513 FILLER_0_12_253
*514 FILLER_0_12_265
*515 FILLER_0_12_27
*516 FILLER_0_12_277
*517 FILLER_0_12_289
*518 FILLER_0_12_29
*519 FILLER_0_12_3
*520 FILLER_0_12_301
*521 FILLER_0_12_307
*522 FILLER_0_12_309
*523 FILLER_0_12_321
*524 FILLER_0_12_333
*525 FILLER_0_12_345
*526 FILLER_0_12_41
*527 FILLER_0_12_53
*528 FILLER_0_12_65
*529 FILLER_0_12_77
*530 FILLER_0_12_83
*531 FILLER_0_12_85
*532 FILLER_0_12_97
*533 FILLER_0_13_105
*534 FILLER_0_13_111
*535 FILLER_0_13_113
*536 FILLER_0_13_125
*537 FILLER_0_13_137
*538 FILLER_0_13_149
*539 FILLER_0_13_15
*540 FILLER_0_13_161
*541 FILLER_0_13_167
*542 FILLER_0_13_169
*543 FILLER_0_13_181
*544 FILLER_0_13_193
*545 FILLER_0_13_205
*546 FILLER_0_13_217
*547 FILLER_0_13_223
*548 FILLER_0_13_225
*549 FILLER_0_13_237
*550 FILLER_0_13_249
*551 FILLER_0_13_261
*552 FILLER_0_13_27
*553 FILLER_0_13_273
*554 FILLER_0_13_279
*555 FILLER_0_13_281
*556 FILLER_0_13_293
*557 FILLER_0_13_3
*558 FILLER_0_13_305
*559 FILLER_0_13_317
*560 FILLER_0_13_329
*561 FILLER_0_13_335
*562 FILLER_0_13_337
*563 FILLER_0_13_349
*564 FILLER_0_13_39
*565 FILLER_0_13_51
*566 FILLER_0_13_55
*567 FILLER_0_13_57
*568 FILLER_0_13_69
*569 FILLER_0_13_81
*570 FILLER_0_13_93
*571 FILLER_0_14_109
*572 FILLER_0_14_121
*573 FILLER_0_14_133
*574 FILLER_0_14_139
*575 FILLER_0_14_141
*576 FILLER_0_14_15
*577 FILLER_0_14_153
*578 FILLER_0_14_165
*579 FILLER_0_14_177
*580 FILLER_0_14_189
*581 FILLER_0_14_195
*582 FILLER_0_14_197
*583 FILLER_0_14_209
*584 FILLER_0_14_221
*585 FILLER_0_14_233
*586 FILLER_0_14_245
*587 FILLER_0_14_251
*588 FILLER_0_14_253
*589 FILLER_0_14_265
*590 FILLER_0_14_27
*591 FILLER_0_14_277
*592 FILLER_0_14_289
*593 FILLER_0_14_29
*594 FILLER_0_14_3
*595 FILLER_0_14_301
*596 FILLER_0_14_307
*597 FILLER_0_14_309
*598 FILLER_0_14_321
*599 FILLER_0_14_333
*600 FILLER_0_14_345
*601 FILLER_0_14_41
*602 FILLER_0_14_53
*603 FILLER_0_14_65
*604 FILLER_0_14_77
*605 FILLER_0_14_83
*606 FILLER_0_14_85
*607 FILLER_0_14_97
*608 FILLER_0_15_105
*609 FILLER_0_15_111
*610 FILLER_0_15_113
*611 FILLER_0_15_125
*612 FILLER_0_15_137
*613 FILLER_0_15_149
*614 FILLER_0_15_15
*615 FILLER_0_15_161
*616 FILLER_0_15_167
*617 FILLER_0_15_169
*618 FILLER_0_15_181
*619 FILLER_0_15_193
*620 FILLER_0_15_205
*621 FILLER_0_15_217
*622 FILLER_0_15_223
*623 FILLER_0_15_225
*624 FILLER_0_15_237
*625 FILLER_0_15_249
*626 FILLER_0_15_261
*627 FILLER_0_15_27
*628 FILLER_0_15_273
*629 FILLER_0_15_279
*630 FILLER_0_15_281
*631 FILLER_0_15_293
*632 FILLER_0_15_3
*633 FILLER_0_15_305
*634 FILLER_0_15_317
*635 FILLER_0_15_329
*636 FILLER_0_15_335
*637 FILLER_0_15_337
*638 FILLER_0_15_349
*639 FILLER_0_15_39
*640 FILLER_0_15_51
*641 FILLER_0_15_55
*642 FILLER_0_15_57
*643 FILLER_0_15_69
*644 FILLER_0_15_81
*645 FILLER_0_15_93
*646 FILLER_0_16_109
*647 FILLER_0_16_121
*648 FILLER_0_16_133
*649 FILLER_0_16_139
*650 FILLER_0_16_141
*651 FILLER_0_16_15
*652 FILLER_0_16_153
*653 FILLER_0_16_165
*654 FILLER_0_16_177
*655 FILLER_0_16_189
*656 FILLER_0_16_195
*657 FILLER_0_16_197
*658 FILLER_0_16_209
*659 FILLER_0_16_221
*660 FILLER_0_16_233
*661 FILLER_0_16_245
*662 FILLER_0_16_251
*663 FILLER_0_16_253
*664 FILLER_0_16_265
*665 FILLER_0_16_27
*666 FILLER_0_16_277
*667 FILLER_0_16_289
*668 FILLER_0_16_29
*669 FILLER_0_16_3
*670 FILLER_0_16_301
*671 FILLER_0_16_307
*672 FILLER_0_16_309
*673 FILLER_0_16_321
*674 FILLER_0_16_333
*675 FILLER_0_16_345
*676 FILLER_0_16_41
*677 FILLER_0_16_53
*678 FILLER_0_16_65
*679 FILLER_0_16_77
*680 FILLER_0_16_83
*681 FILLER_0_16_85
*682 FILLER_0_16_97
*683 FILLER_0_17_105
*684 FILLER_0_17_111
*685 FILLER_0_17_113
*686 FILLER_0_17_125
*687 FILLER_0_17_137
*688 FILLER_0_17_149
*689 FILLER_0_17_15
*690 FILLER_0_17_161
*691 FILLER_0_17_167
*692 FILLER_0_17_169
*693 FILLER_0_17_181
*694 FILLER_0_17_193
*695 FILLER_0_17_205
*696 FILLER_0_17_217
*697 FILLER_0_17_223
*698 FILLER_0_17_225
*699 FILLER_0_17_237
*700 FILLER_0_17_249
*701 FILLER_0_17_261
*702 FILLER_0_17_27
*703 FILLER_0_17_273
*704 FILLER_0_17_279
*705 FILLER_0_17_281
*706 FILLER_0_17_293
*707 FILLER_0_17_3
*708 FILLER_0_17_305
*709 FILLER_0_17_317
*710 FILLER_0_17_329
*711 FILLER_0_17_335
*712 FILLER_0_17_337
*713 FILLER_0_17_349
*714 FILLER_0_17_39
*715 FILLER_0_17_51
*716 FILLER_0_17_55
*717 FILLER_0_17_57
*718 FILLER_0_17_69
*719 FILLER_0_17_81
*720 FILLER_0_17_93
*721 FILLER_0_18_109
*722 FILLER_0_18_121
*723 FILLER_0_18_133
*724 FILLER_0_18_139
*725 FILLER_0_18_141
*726 FILLER_0_18_15
*727 FILLER_0_18_153
*728 FILLER_0_18_165
*729 FILLER_0_18_177
*730 FILLER_0_18_189
*731 FILLER_0_18_195
*732 FILLER_0_18_197
*733 FILLER_0_18_209
*734 FILLER_0_18_221
*735 FILLER_0_18_233
*736 FILLER_0_18_245
*737 FILLER_0_18_251
*738 FILLER_0_18_253
*739 FILLER_0_18_265
*740 FILLER_0_18_27
*741 FILLER_0_18_277
*742 FILLER_0_18_289
*743 FILLER_0_18_29
*744 FILLER_0_18_3
*745 FILLER_0_18_301
*746 FILLER_0_18_307
*747 FILLER_0_18_309
*748 FILLER_0_18_321
*749 FILLER_0_18_333
*750 FILLER_0_18_345
*751 FILLER_0_18_41
*752 FILLER_0_18_53
*753 FILLER_0_18_65
*754 FILLER_0_18_77
*755 FILLER_0_18_83
*756 FILLER_0_18_85
*757 FILLER_0_18_97
*758 FILLER_0_19_105
*759 FILLER_0_19_111
*760 FILLER_0_19_137
*761 FILLER_0_19_149
*762 FILLER_0_19_15
*763 FILLER_0_19_161
*764 FILLER_0_19_167
*765 FILLER_0_19_169
*766 FILLER_0_19_181
*767 FILLER_0_19_193
*768 FILLER_0_19_205
*769 FILLER_0_19_217
*770 FILLER_0_19_223
*771 FILLER_0_19_225
*772 FILLER_0_19_237
*773 FILLER_0_19_249
*774 FILLER_0_19_261
*775 FILLER_0_19_27
*776 FILLER_0_19_273
*777 FILLER_0_19_279
*778 FILLER_0_19_281
*779 FILLER_0_19_293
*780 FILLER_0_19_3
*781 FILLER_0_19_305
*782 FILLER_0_19_317
*783 FILLER_0_19_329
*784 FILLER_0_19_335
*785 FILLER_0_19_337
*786 FILLER_0_19_349
*787 FILLER_0_19_39
*788 FILLER_0_19_51
*789 FILLER_0_19_55
*790 FILLER_0_19_57
*791 FILLER_0_19_69
*792 FILLER_0_19_81
*793 FILLER_0_19_93
*794 FILLER_0_1_105
*795 FILLER_0_1_111
*796 FILLER_0_1_113
*797 FILLER_0_1_125
*798 FILLER_0_1_137
*799 FILLER_0_1_149
*800 FILLER_0_1_15
*801 FILLER_0_1_161
*802 FILLER_0_1_167
*803 FILLER_0_1_169
*804 FILLER_0_1_181
*805 FILLER_0_1_193
*806 FILLER_0_1_205
*807 FILLER_0_1_217
*808 FILLER_0_1_223
*809 FILLER_0_1_225
*810 FILLER_0_1_237
*811 FILLER_0_1_249
*812 FILLER_0_1_261
*813 FILLER_0_1_27
*814 FILLER_0_1_273
*815 FILLER_0_1_279
*816 FILLER_0_1_281
*817 FILLER_0_1_293
*818 FILLER_0_1_3
*819 FILLER_0_1_305
*820 FILLER_0_1_317
*821 FILLER_0_1_329
*822 FILLER_0_1_335
*823 FILLER_0_1_337
*824 FILLER_0_1_349
*825 FILLER_0_1_39
*826 FILLER_0_1_51
*827 FILLER_0_1_55
*828 FILLER_0_1_57
*829 FILLER_0_1_69
*830 FILLER_0_1_81
*831 FILLER_0_1_93
*832 FILLER_0_20_109
*833 FILLER_0_20_138
*834 FILLER_0_20_141
*835 FILLER_0_20_149
*836 FILLER_0_20_15
*837 FILLER_0_20_160
*838 FILLER_0_20_172
*839 FILLER_0_20_184
*840 FILLER_0_20_197
*841 FILLER_0_20_209
*842 FILLER_0_20_221
*843 FILLER_0_20_229
*844 FILLER_0_20_236
*845 FILLER_0_20_248
*846 FILLER_0_20_253
*847 FILLER_0_20_265
*848 FILLER_0_20_27
*849 FILLER_0_20_277
*850 FILLER_0_20_289
*851 FILLER_0_20_29
*852 FILLER_0_20_3
*853 FILLER_0_20_301
*854 FILLER_0_20_307
*855 FILLER_0_20_309
*856 FILLER_0_20_321
*857 FILLER_0_20_333
*858 FILLER_0_20_345
*859 FILLER_0_20_41
*860 FILLER_0_20_53
*861 FILLER_0_20_65
*862 FILLER_0_20_77
*863 FILLER_0_20_83
*864 FILLER_0_20_85
*865 FILLER_0_20_97
*866 FILLER_0_21_105
*867 FILLER_0_21_111
*868 FILLER_0_21_113
*869 FILLER_0_21_141
*870 FILLER_0_21_15
*871 FILLER_0_21_164
*872 FILLER_0_21_177
*873 FILLER_0_21_189
*874 FILLER_0_21_201
*875 FILLER_0_21_213
*876 FILLER_0_21_219
*877 FILLER_0_21_225
*878 FILLER_0_21_254
*879 FILLER_0_21_27
*880 FILLER_0_21_297
*881 FILLER_0_21_3
*882 FILLER_0_21_309
*883 FILLER_0_21_321
*884 FILLER_0_21_333
*885 FILLER_0_21_337
*886 FILLER_0_21_349
*887 FILLER_0_21_39
*888 FILLER_0_21_51
*889 FILLER_0_21_55
*890 FILLER_0_21_57
*891 FILLER_0_21_69
*892 FILLER_0_21_81
*893 FILLER_0_21_93
*894 FILLER_0_22_109
*895 FILLER_0_22_113
*896 FILLER_0_22_141
*897 FILLER_0_22_15
*898 FILLER_0_22_166
*899 FILLER_0_22_178
*900 FILLER_0_22_190
*901 FILLER_0_22_197
*902 FILLER_0_22_209
*903 FILLER_0_22_223
*904 FILLER_0_22_27
*905 FILLER_0_22_29
*906 FILLER_0_22_298
*907 FILLER_0_22_3
*908 FILLER_0_22_306
*909 FILLER_0_22_309
*910 FILLER_0_22_321
*911 FILLER_0_22_333
*912 FILLER_0_22_345
*913 FILLER_0_22_41
*914 FILLER_0_22_53
*915 FILLER_0_22_65
*916 FILLER_0_22_77
*917 FILLER_0_22_83
*918 FILLER_0_22_85
*919 FILLER_0_22_97
*920 FILLER_0_23_101
*921 FILLER_0_23_109
*922 FILLER_0_23_113
*923 FILLER_0_23_125
*924 FILLER_0_23_137
*925 FILLER_0_23_145
*926 FILLER_0_23_15
*927 FILLER_0_23_152
*928 FILLER_0_23_163
*929 FILLER_0_23_167
*930 FILLER_0_23_177
*931 FILLER_0_23_185
*932 FILLER_0_23_207
*933 FILLER_0_23_215
*934 FILLER_0_23_255
*935 FILLER_0_23_261
*936 FILLER_0_23_27
*937 FILLER_0_23_278
*938 FILLER_0_23_281
*939 FILLER_0_23_3
*940 FILLER_0_23_302
*941 FILLER_0_23_314
*942 FILLER_0_23_326
*943 FILLER_0_23_334
*944 FILLER_0_23_337
*945 FILLER_0_23_349
*946 FILLER_0_23_39
*947 FILLER_0_23_51
*948 FILLER_0_23_55
*949 FILLER_0_23_57
*950 FILLER_0_23_69
*951 FILLER_0_23_81
*952 FILLER_0_23_93
*953 FILLER_0_23_97
*954 FILLER_0_24_121
*955 FILLER_0_24_133
*956 FILLER_0_24_139
*957 FILLER_0_24_141
*958 FILLER_0_24_15
*959 FILLER_0_24_169
*960 FILLER_0_24_194
*961 FILLER_0_24_249
*962 FILLER_0_24_253
*963 FILLER_0_24_259
*964 FILLER_0_24_27
*965 FILLER_0_24_280
*966 FILLER_0_24_29
*967 FILLER_0_24_3
*968 FILLER_0_24_301
*969 FILLER_0_24_307
*970 FILLER_0_24_317
*971 FILLER_0_24_329
*972 FILLER_0_24_341
*973 FILLER_0_24_349
*974 FILLER_0_24_41
*975 FILLER_0_24_53
*976 FILLER_0_24_65
*977 FILLER_0_24_77
*978 FILLER_0_24_83
*979 FILLER_0_24_85
*980 FILLER_0_24_93
*981 FILLER_0_25_133
*982 FILLER_0_25_145
*983 FILLER_0_25_149
*984 FILLER_0_25_15
*985 FILLER_0_25_165
*986 FILLER_0_25_177
*987 FILLER_0_25_183
*988 FILLER_0_25_210
*989 FILLER_0_25_222
*990 FILLER_0_25_225
*991 FILLER_0_25_233
*992 FILLER_0_25_239
*993 FILLER_0_25_246
*994 FILLER_0_25_258
*995 FILLER_0_25_27
*996 FILLER_0_25_270
*997 FILLER_0_25_279
*998 FILLER_0_25_3
*999 FILLER_0_25_301
*1000 FILLER_0_25_313
*1001 FILLER_0_25_335
*1002 FILLER_0_25_337
*1003 FILLER_0_25_349
*1004 FILLER_0_25_39
*1005 FILLER_0_25_51
*1006 FILLER_0_25_55
*1007 FILLER_0_25_57
*1008 FILLER_0_25_69
*1009 FILLER_0_25_81
*1010 FILLER_0_26_116
*1011 FILLER_0_26_124
*1012 FILLER_0_26_135
*1013 FILLER_0_26_139
*1014 FILLER_0_26_141
*1015 FILLER_0_26_15
*1016 FILLER_0_26_164
*1017 FILLER_0_26_178
*1018 FILLER_0_26_190
*1019 FILLER_0_26_195
*1020 FILLER_0_26_217
*1021 FILLER_0_26_221
*1022 FILLER_0_26_242
*1023 FILLER_0_26_248
*1024 FILLER_0_26_27
*1025 FILLER_0_26_29
*1026 FILLER_0_26_3
*1027 FILLER_0_26_301
*1028 FILLER_0_26_307
*1029 FILLER_0_26_309
*1030 FILLER_0_26_344
*1031 FILLER_0_26_350
*1032 FILLER_0_26_41
*1033 FILLER_0_26_53
*1034 FILLER_0_26_65
*1035 FILLER_0_26_77
*1036 FILLER_0_26_83
*1037 FILLER_0_26_85
*1038 FILLER_0_27_100
*1039 FILLER_0_27_113
*1040 FILLER_0_27_125
*1041 FILLER_0_27_137
*1042 FILLER_0_27_15
*1043 FILLER_0_27_178
*1044 FILLER_0_27_190
*1045 FILLER_0_27_220
*1046 FILLER_0_27_245
*1047 FILLER_0_27_253
*1048 FILLER_0_27_27
*1049 FILLER_0_27_274
*1050 FILLER_0_27_297
*1051 FILLER_0_27_3
*1052 FILLER_0_27_308
*1053 FILLER_0_27_337
*1054 FILLER_0_27_349
*1055 FILLER_0_27_39
*1056 FILLER_0_27_51
*1057 FILLER_0_27_55
*1058 FILLER_0_27_57
*1059 FILLER_0_27_69
*1060 FILLER_0_27_81
*1061 FILLER_0_27_93
*1062 FILLER_0_28_101
*1063 FILLER_0_28_134
*1064 FILLER_0_28_141
*1065 FILLER_0_28_15
*1066 FILLER_0_28_188
*1067 FILLER_0_28_197
*1068 FILLER_0_28_218
*1069 FILLER_0_28_233
*1070 FILLER_0_28_245
*1071 FILLER_0_28_251
*1072 FILLER_0_28_253
*1073 FILLER_0_28_259
*1074 FILLER_0_28_27
*1075 FILLER_0_28_280
*1076 FILLER_0_28_284
*1077 FILLER_0_28_288
*1078 FILLER_0_28_29
*1079 FILLER_0_28_3
*1080 FILLER_0_28_300
*1081 FILLER_0_28_307
*1082 FILLER_0_28_309
*1083 FILLER_0_28_340
*1084 FILLER_0_28_348
*1085 FILLER_0_28_41
*1086 FILLER_0_28_53
*1087 FILLER_0_28_65
*1088 FILLER_0_28_77
*1089 FILLER_0_28_83
*1090 FILLER_0_28_85
*1091 FILLER_0_28_97
*1092 FILLER_0_29_133
*1093 FILLER_0_29_141
*1094 FILLER_0_29_15
*1095 FILLER_0_29_162
*1096 FILLER_0_29_179
*1097 FILLER_0_29_185
*1098 FILLER_0_29_206
*1099 FILLER_0_29_218
*1100 FILLER_0_29_225
*1101 FILLER_0_29_237
*1102 FILLER_0_29_245
*1103 FILLER_0_29_27
*1104 FILLER_0_29_271
*1105 FILLER_0_29_3
*1106 FILLER_0_29_321
*1107 FILLER_0_29_333
*1108 FILLER_0_29_337
*1109 FILLER_0_29_349
*1110 FILLER_0_29_39
*1111 FILLER_0_29_51
*1112 FILLER_0_29_55
*1113 FILLER_0_29_57
*1114 FILLER_0_29_69
*1115 FILLER_0_29_81
*1116 FILLER_0_29_89
*1117 FILLER_0_2_109
*1118 FILLER_0_2_121
*1119 FILLER_0_2_133
*1120 FILLER_0_2_139
*1121 FILLER_0_2_141
*1122 FILLER_0_2_15
*1123 FILLER_0_2_153
*1124 FILLER_0_2_165
*1125 FILLER_0_2_177
*1126 FILLER_0_2_189
*1127 FILLER_0_2_195
*1128 FILLER_0_2_197
*1129 FILLER_0_2_209
*1130 FILLER_0_2_221
*1131 FILLER_0_2_233
*1132 FILLER_0_2_245
*1133 FILLER_0_2_251
*1134 FILLER_0_2_253
*1135 FILLER_0_2_265
*1136 FILLER_0_2_27
*1137 FILLER_0_2_277
*1138 FILLER_0_2_289
*1139 FILLER_0_2_29
*1140 FILLER_0_2_3
*1141 FILLER_0_2_301
*1142 FILLER_0_2_307
*1143 FILLER_0_2_309
*1144 FILLER_0_2_321
*1145 FILLER_0_2_333
*1146 FILLER_0_2_345
*1147 FILLER_0_2_41
*1148 FILLER_0_2_53
*1149 FILLER_0_2_65
*1150 FILLER_0_2_77
*1151 FILLER_0_2_83
*1152 FILLER_0_2_85
*1153 FILLER_0_2_97
*1154 FILLER_0_30_109
*1155 FILLER_0_30_132
*1156 FILLER_0_30_15
*1157 FILLER_0_30_164
*1158 FILLER_0_30_185
*1159 FILLER_0_30_193
*1160 FILLER_0_30_197
*1161 FILLER_0_30_201
*1162 FILLER_0_30_228
*1163 FILLER_0_30_240
*1164 FILLER_0_30_27
*1165 FILLER_0_30_283
*1166 FILLER_0_30_29
*1167 FILLER_0_30_295
*1168 FILLER_0_30_3
*1169 FILLER_0_30_307
*1170 FILLER_0_30_309
*1171 FILLER_0_30_333
*1172 FILLER_0_30_341
*1173 FILLER_0_30_349
*1174 FILLER_0_30_41
*1175 FILLER_0_30_53
*1176 FILLER_0_30_65
*1177 FILLER_0_30_77
*1178 FILLER_0_30_83
*1179 FILLER_0_30_85
*1180 FILLER_0_30_97
*1181 FILLER_0_31_105
*1182 FILLER_0_31_133
*1183 FILLER_0_31_145
*1184 FILLER_0_31_15
*1185 FILLER_0_31_167
*1186 FILLER_0_31_177
*1187 FILLER_0_31_195
*1188 FILLER_0_31_216
*1189 FILLER_0_31_222
*1190 FILLER_0_31_27
*1191 FILLER_0_31_278
*1192 FILLER_0_31_3
*1193 FILLER_0_31_39
*1194 FILLER_0_31_51
*1195 FILLER_0_31_55
*1196 FILLER_0_31_57
*1197 FILLER_0_31_69
*1198 FILLER_0_31_81
*1199 FILLER_0_31_93
*1200 FILLER_0_32_132
*1201 FILLER_0_32_141
*1202 FILLER_0_32_15
*1203 FILLER_0_32_153
*1204 FILLER_0_32_165
*1205 FILLER_0_32_175
*1206 FILLER_0_32_187
*1207 FILLER_0_32_195
*1208 FILLER_0_32_197
*1209 FILLER_0_32_207
*1210 FILLER_0_32_225
*1211 FILLER_0_32_231
*1212 FILLER_0_32_247
*1213 FILLER_0_32_251
*1214 FILLER_0_32_253
*1215 FILLER_0_32_257
*1216 FILLER_0_32_269
*1217 FILLER_0_32_27
*1218 FILLER_0_32_277
*1219 FILLER_0_32_284
*1220 FILLER_0_32_29
*1221 FILLER_0_32_292
*1222 FILLER_0_32_3
*1223 FILLER_0_32_304
*1224 FILLER_0_32_309
*1225 FILLER_0_32_315
*1226 FILLER_0_32_336
*1227 FILLER_0_32_346
*1228 FILLER_0_32_350
*1229 FILLER_0_32_41
*1230 FILLER_0_32_53
*1231 FILLER_0_32_65
*1232 FILLER_0_32_77
*1233 FILLER_0_32_83
*1234 FILLER_0_32_85
*1235 FILLER_0_32_97
*1236 FILLER_0_33_138
*1237 FILLER_0_33_15
*1238 FILLER_0_33_150
*1239 FILLER_0_33_162
*1240 FILLER_0_33_189
*1241 FILLER_0_33_201
*1242 FILLER_0_33_219
*1243 FILLER_0_33_230
*1244 FILLER_0_33_241
*1245 FILLER_0_33_253
*1246 FILLER_0_33_261
*1247 FILLER_0_33_266
*1248 FILLER_0_33_27
*1249 FILLER_0_33_276
*1250 FILLER_0_33_297
*1251 FILLER_0_33_3
*1252 FILLER_0_33_309
*1253 FILLER_0_33_321
*1254 FILLER_0_33_340
*1255 FILLER_0_33_348
*1256 FILLER_0_33_39
*1257 FILLER_0_33_51
*1258 FILLER_0_33_55
*1259 FILLER_0_33_57
*1260 FILLER_0_33_69
*1261 FILLER_0_33_81
*1262 FILLER_0_33_89
*1263 FILLER_0_34_119
*1264 FILLER_0_34_133
*1265 FILLER_0_34_139
*1266 FILLER_0_34_15
*1267 FILLER_0_34_155
*1268 FILLER_0_34_167
*1269 FILLER_0_34_171
*1270 FILLER_0_34_190
*1271 FILLER_0_34_197
*1272 FILLER_0_34_206
*1273 FILLER_0_34_222
*1274 FILLER_0_34_234
*1275 FILLER_0_34_246
*1276 FILLER_0_34_253
*1277 FILLER_0_34_265
*1278 FILLER_0_34_269
*1279 FILLER_0_34_27
*1280 FILLER_0_34_29
*1281 FILLER_0_34_298
*1282 FILLER_0_34_3
*1283 FILLER_0_34_306
*1284 FILLER_0_34_309
*1285 FILLER_0_34_348
*1286 FILLER_0_34_41
*1287 FILLER_0_34_53
*1288 FILLER_0_34_65
*1289 FILLER_0_34_77
*1290 FILLER_0_34_83
*1291 FILLER_0_34_85
*1292 FILLER_0_34_93
*1293 FILLER_0_35_101
*1294 FILLER_0_35_105
*1295 FILLER_0_35_111
*1296 FILLER_0_35_113
*1297 FILLER_0_35_125
*1298 FILLER_0_35_137
*1299 FILLER_0_35_15
*1300 FILLER_0_35_164
*1301 FILLER_0_35_172
*1302 FILLER_0_35_184
*1303 FILLER_0_35_196
*1304 FILLER_0_35_225
*1305 FILLER_0_35_237
*1306 FILLER_0_35_260
*1307 FILLER_0_35_27
*1308 FILLER_0_35_272
*1309 FILLER_0_35_292
*1310 FILLER_0_35_298
*1311 FILLER_0_35_3
*1312 FILLER_0_35_310
*1313 FILLER_0_35_322
*1314 FILLER_0_35_329
*1315 FILLER_0_35_344
*1316 FILLER_0_35_350
*1317 FILLER_0_35_39
*1318 FILLER_0_35_51
*1319 FILLER_0_35_55
*1320 FILLER_0_35_57
*1321 FILLER_0_35_69
*1322 FILLER_0_35_81
*1323 FILLER_0_35_93
*1324 FILLER_0_36_124
*1325 FILLER_0_36_136
*1326 FILLER_0_36_141
*1327 FILLER_0_36_15
*1328 FILLER_0_36_163
*1329 FILLER_0_36_179
*1330 FILLER_0_36_187
*1331 FILLER_0_36_227
*1332 FILLER_0_36_235
*1333 FILLER_0_36_244
*1334 FILLER_0_36_251
*1335 FILLER_0_36_265
*1336 FILLER_0_36_27
*1337 FILLER_0_36_277
*1338 FILLER_0_36_285
*1339 FILLER_0_36_29
*1340 FILLER_0_36_3
*1341 FILLER_0_36_307
*1342 FILLER_0_36_309
*1343 FILLER_0_36_316
*1344 FILLER_0_36_343
*1345 FILLER_0_36_41
*1346 FILLER_0_36_53
*1347 FILLER_0_36_65
*1348 FILLER_0_36_77
*1349 FILLER_0_36_83
*1350 FILLER_0_36_85
*1351 FILLER_0_36_97
*1352 FILLER_0_37_133
*1353 FILLER_0_37_15
*1354 FILLER_0_37_167
*1355 FILLER_0_37_169
*1356 FILLER_0_37_181
*1357 FILLER_0_37_213
*1358 FILLER_0_37_231
*1359 FILLER_0_37_235
*1360 FILLER_0_37_263
*1361 FILLER_0_37_27
*1362 FILLER_0_37_275
*1363 FILLER_0_37_3
*1364 FILLER_0_37_301
*1365 FILLER_0_37_314
*1366 FILLER_0_37_342
*1367 FILLER_0_37_350
*1368 FILLER_0_37_39
*1369 FILLER_0_37_51
*1370 FILLER_0_37_55
*1371 FILLER_0_37_57
*1372 FILLER_0_37_69
*1373 FILLER_0_37_81
*1374 FILLER_0_37_89
*1375 FILLER_0_38_110
*1376 FILLER_0_38_116
*1377 FILLER_0_38_122
*1378 FILLER_0_38_128
*1379 FILLER_0_38_134
*1380 FILLER_0_38_141
*1381 FILLER_0_38_146
*1382 FILLER_0_38_15
*1383 FILLER_0_38_152
*1384 FILLER_0_38_159
*1385 FILLER_0_38_167
*1386 FILLER_0_38_172
*1387 FILLER_0_38_176
*1388 FILLER_0_38_182
*1389 FILLER_0_38_188
*1390 FILLER_0_38_194
*1391 FILLER_0_38_197
*1392 FILLER_0_38_206
*1393 FILLER_0_38_212
*1394 FILLER_0_38_225
*1395 FILLER_0_38_230
*1396 FILLER_0_38_236
*1397 FILLER_0_38_242
*1398 FILLER_0_38_248
*1399 FILLER_0_38_27
*1400 FILLER_0_38_279
*1401 FILLER_0_38_284
*1402 FILLER_0_38_29
*1403 FILLER_0_38_298
*1404 FILLER_0_38_3
*1405 FILLER_0_38_318
*1406 FILLER_0_38_333
*1407 FILLER_0_38_337
*1408 FILLER_0_38_349
*1409 FILLER_0_38_41
*1410 FILLER_0_38_53
*1411 FILLER_0_38_57
*1412 FILLER_0_38_68
*1413 FILLER_0_38_74
*1414 FILLER_0_38_80
*1415 FILLER_0_38_88
*1416 FILLER_0_3_105
*1417 FILLER_0_3_111
*1418 FILLER_0_3_113
*1419 FILLER_0_3_125
*1420 FILLER_0_3_137
*1421 FILLER_0_3_149
*1422 FILLER_0_3_15
*1423 FILLER_0_3_161
*1424 FILLER_0_3_167
*1425 FILLER_0_3_169
*1426 FILLER_0_3_181
*1427 FILLER_0_3_193
*1428 FILLER_0_3_205
*1429 FILLER_0_3_217
*1430 FILLER_0_3_223
*1431 FILLER_0_3_225
*1432 FILLER_0_3_237
*1433 FILLER_0_3_249
*1434 FILLER_0_3_261
*1435 FILLER_0_3_27
*1436 FILLER_0_3_273
*1437 FILLER_0_3_279
*1438 FILLER_0_3_281
*1439 FILLER_0_3_293
*1440 FILLER_0_3_3
*1441 FILLER_0_3_305
*1442 FILLER_0_3_317
*1443 FILLER_0_3_329
*1444 FILLER_0_3_335
*1445 FILLER_0_3_337
*1446 FILLER_0_3_349
*1447 FILLER_0_3_39
*1448 FILLER_0_3_51
*1449 FILLER_0_3_55
*1450 FILLER_0_3_57
*1451 FILLER_0_3_69
*1452 FILLER_0_3_81
*1453 FILLER_0_3_93
*1454 FILLER_0_4_109
*1455 FILLER_0_4_121
*1456 FILLER_0_4_133
*1457 FILLER_0_4_139
*1458 FILLER_0_4_141
*1459 FILLER_0_4_15
*1460 FILLER_0_4_153
*1461 FILLER_0_4_165
*1462 FILLER_0_4_177
*1463 FILLER_0_4_189
*1464 FILLER_0_4_195
*1465 FILLER_0_4_197
*1466 FILLER_0_4_209
*1467 FILLER_0_4_221
*1468 FILLER_0_4_233
*1469 FILLER_0_4_245
*1470 FILLER_0_4_251
*1471 FILLER_0_4_253
*1472 FILLER_0_4_265
*1473 FILLER_0_4_27
*1474 FILLER_0_4_277
*1475 FILLER_0_4_289
*1476 FILLER_0_4_29
*1477 FILLER_0_4_3
*1478 FILLER_0_4_301
*1479 FILLER_0_4_307
*1480 FILLER_0_4_309
*1481 FILLER_0_4_321
*1482 FILLER_0_4_333
*1483 FILLER_0_4_345
*1484 FILLER_0_4_41
*1485 FILLER_0_4_53
*1486 FILLER_0_4_65
*1487 FILLER_0_4_77
*1488 FILLER_0_4_83
*1489 FILLER_0_4_85
*1490 FILLER_0_4_97
*1491 FILLER_0_5_105
*1492 FILLER_0_5_111
*1493 FILLER_0_5_113
*1494 FILLER_0_5_125
*1495 FILLER_0_5_137
*1496 FILLER_0_5_149
*1497 FILLER_0_5_15
*1498 FILLER_0_5_161
*1499 FILLER_0_5_167
*1500 FILLER_0_5_169