*SPEF "ieee 1481-1999"
*DESIGN "tt_um_topLevel_derekabarca"
*DATE "11:11:11 Fri 11 11, 1111"
*VENDOR "OpenRCX"
*PROGRAM "Parallel Extraction"
*VERSION "1.0"
*DESIGN_FLOW "NAME_SCOPE LOCAL" "PIN_CAP NONE"
*DIVIDER /
*DELIMITER :
*BUS_DELIMITER []
*T_UNIT 1 NS
*C_UNIT 1 PF
*R_UNIT 1 OHM
*L_UNIT 1 HENRY

*NAME_MAP
*3 clk
*4 ena
*5 rst_n
*6 spike_output
*7 ui_in[0]
*8 ui_in[1]
*9 ui_in[2]
*10 ui_in[3]
*11 ui_in[4]
*12 ui_in[5]
*13 ui_in[6]
*14 ui_in[7]
*15 uio_in[0]
*16 uio_in[1]
*17 uio_in[2]
*18 uio_in[3]
*19 uio_in[4]
*20 uio_in[5]
*21 uio_in[6]
*22 uio_in[7]
*23 net2
*24 net3
*25 net4
*26 net5
*27 net6
*28 net7
*29 net8
*30 net9
*31 net10
*32 net11
*33 net12
*34 net13
*35 net14
*36 net15
*37 net16
*38 net17
*39 net18
*40 net19
*41 net20
*42 net21
*43 net22
*44 net23
*45 net24
*46 net25
*47 _000_
*48 _001_
*49 _002_
*50 _003_
*51 _004_
*52 _005_
*53 _006_
*54 _007_
*55 _008_
*56 _009_
*57 _010_
*58 _011_
*59 _012_
*60 _013_
*61 _014_
*62 _015_
*63 _016_
*64 _017_
*65 _018_
*66 _019_
*67 _020_
*68 _021_
*69 _022_
*70 _023_
*71 _024_
*72 _025_
*73 _026_
*74 _027_
*75 _028_
*76 _029_
*77 _030_
*78 _031_
*79 _032_
*80 _033_
*81 clknet_0_clk
*82 clknet_1_0__leaf_clk
*83 clknet_1_1__leaf_clk
*84 net1
*85 net26
*86 net27
*87 net28
*88 net29
*89 net30
*90 net31
*91 net32
*92 net33
*93 net34
*94 net35
*95 neuron1\.count\[0\]
*96 neuron1\.count\[1\]
*97 neuron1\.count\[2\]
*98 neuron1\.spike
*99 neuron2\.count\[0\]
*100 neuron2\.count\[1\]
*101 neuron2\.count\[2\]
*102 neuron2\.spike
*103 synapse1\.delay_counter\[0\]
*104 synapse1\.delay_counter\[1\]
*105 synapse2\.delay_counter\[0\]
*106 synapse2\.delay_counter\[1\]
*107 FILLER_0_0_109
*108 FILLER_0_0_113
*109 FILLER_0_0_125
*110 FILLER_0_0_137
*111 FILLER_0_0_141
*112 FILLER_0_0_15
*113 FILLER_0_0_153
*114 FILLER_0_0_165
*115 FILLER_0_0_169
*116 FILLER_0_0_181
*117 FILLER_0_0_193
*118 FILLER_0_0_197
*119 FILLER_0_0_209
*120 FILLER_0_0_221
*121 FILLER_0_0_225
*122 FILLER_0_0_237
*123 FILLER_0_0_249
*124 FILLER_0_0_253
*125 FILLER_0_0_265
*126 FILLER_0_0_27
*127 FILLER_0_0_277
*128 FILLER_0_0_281
*129 FILLER_0_0_29
*130 FILLER_0_0_293
*131 FILLER_0_0_3
*132 FILLER_0_0_305
*133 FILLER_0_0_309
*134 FILLER_0_0_321
*135 FILLER_0_0_333
*136 FILLER_0_0_337
*137 FILLER_0_0_349
*138 FILLER_0_0_41
*139 FILLER_0_0_53
*140 FILLER_0_0_57
*141 FILLER_0_0_69
*142 FILLER_0_0_81
*143 FILLER_0_0_85
*144 FILLER_0_0_97
*145 FILLER_0_10_109
*146 FILLER_0_10_121
*147 FILLER_0_10_133
*148 FILLER_0_10_139
*149 FILLER_0_10_141
*150 FILLER_0_10_15
*151 FILLER_0_10_153
*152 FILLER_0_10_165
*153 FILLER_0_10_177
*154 FILLER_0_10_189
*155 FILLER_0_10_195
*156 FILLER_0_10_197
*157 FILLER_0_10_209
*158 FILLER_0_10_221
*159 FILLER_0_10_233
*160 FILLER_0_10_245
*161 FILLER_0_10_251
*162 FILLER_0_10_253
*163 FILLER_0_10_265
*164 FILLER_0_10_27
*165 FILLER_0_10_277
*166 FILLER_0_10_289
*167 FILLER_0_10_29
*168 FILLER_0_10_3
*169 FILLER_0_10_301
*170 FILLER_0_10_307
*171 FILLER_0_10_309
*172 FILLER_0_10_321
*173 FILLER_0_10_333
*174 FILLER_0_10_345
*175 FILLER_0_10_41
*176 FILLER_0_10_53
*177 FILLER_0_10_65
*178 FILLER_0_10_77
*179 FILLER_0_10_83
*180 FILLER_0_10_85
*181 FILLER_0_10_97
*182 FILLER_0_11_105
*183 FILLER_0_11_111
*184 FILLER_0_11_113
*185 FILLER_0_11_125
*186 FILLER_0_11_137
*187 FILLER_0_11_149
*188 FILLER_0_11_15
*189 FILLER_0_11_161
*190 FILLER_0_11_167
*191 FILLER_0_11_169
*192 FILLER_0_11_181
*193 FILLER_0_11_193
*194 FILLER_0_11_205
*195 FILLER_0_11_217
*196 FILLER_0_11_223
*197 FILLER_0_11_225
*198 FILLER_0_11_237
*199 FILLER_0_11_249
*200 FILLER_0_11_261
*201 FILLER_0_11_27
*202 FILLER_0_11_273
*203 FILLER_0_11_279
*204 FILLER_0_11_281
*205 FILLER_0_11_293
*206 FILLER_0_11_3
*207 FILLER_0_11_305
*208 FILLER_0_11_317
*209 FILLER_0_11_329
*210 FILLER_0_11_335
*211 FILLER_0_11_337
*212 FILLER_0_11_349
*213 FILLER_0_11_39
*214 FILLER_0_11_51
*215 FILLER_0_11_55
*216 FILLER_0_11_57
*217 FILLER_0_11_69
*218 FILLER_0_11_81
*219 FILLER_0_11_93
*220 FILLER_0_12_109
*221 FILLER_0_12_121
*222 FILLER_0_12_133
*223 FILLER_0_12_139
*224 FILLER_0_12_141
*225 FILLER_0_12_15
*226 FILLER_0_12_153
*227 FILLER_0_12_165
*228 FILLER_0_12_177
*229 FILLER_0_12_189
*230 FILLER_0_12_195
*231 FILLER_0_12_197
*232 FILLER_0_12_209
*233 FILLER_0_12_221
*234 FILLER_0_12_233
*235 FILLER_0_12_245
*236 FILLER_0_12_251
*237 FILLER_0_12_253
*238 FILLER_0_12_265
*239 FILLER_0_12_27
*240 FILLER_0_12_277
*241 FILLER_0_12_289
*242 FILLER_0_12_29
*243 FILLER_0_12_3
*244 FILLER_0_12_301
*245 FILLER_0_12_307
*246 FILLER_0_12_309
*247 FILLER_0_12_321
*248 FILLER_0_12_333
*249 FILLER_0_12_345
*250 FILLER_0_12_41
*251 FILLER_0_12_53
*252 FILLER_0_12_65
*253 FILLER_0_12_77
*254 FILLER_0_12_83
*255 FILLER_0_12_85
*256 FILLER_0_12_97
*257 FILLER_0_13_105
*258 FILLER_0_13_111
*259 FILLER_0_13_113
*260 FILLER_0_13_125
*261 FILLER_0_13_137
*262 FILLER_0_13_149
*263 FILLER_0_13_15
*264 FILLER_0_13_161
*265 FILLER_0_13_167
*266 FILLER_0_13_169
*267 FILLER_0_13_181
*268 FILLER_0_13_193
*269 FILLER_0_13_205
*270 FILLER_0_13_217
*271 FILLER_0_13_223
*272 FILLER_0_13_225
*273 FILLER_0_13_237
*274 FILLER_0_13_249
*275 FILLER_0_13_261
*276 FILLER_0_13_27
*277 FILLER_0_13_273
*278 FILLER_0_13_279
*279 FILLER_0_13_281
*280 FILLER_0_13_293
*281 FILLER_0_13_3
*282 FILLER_0_13_305
*283 FILLER_0_13_317
*284 FILLER_0_13_329
*285 FILLER_0_13_335
*286 FILLER_0_13_337
*287 FILLER_0_13_349
*288 FILLER_0_13_39
*289 FILLER_0_13_51
*290 FILLER_0_13_55
*291 FILLER_0_13_57
*292 FILLER_0_13_69
*293 FILLER_0_13_81
*294 FILLER_0_13_93
*295 FILLER_0_14_109
*296 FILLER_0_14_121
*297 FILLER_0_14_133
*298 FILLER_0_14_139
*299 FILLER_0_14_141
*300 FILLER_0_14_15
*301 FILLER_0_14_153
*302 FILLER_0_14_165
*303 FILLER_0_14_177
*304 FILLER_0_14_189
*305 FILLER_0_14_195
*306 FILLER_0_14_197
*307 FILLER_0_14_209
*308 FILLER_0_14_221
*309 FILLER_0_14_233
*310 FILLER_0_14_245
*311 FILLER_0_14_251
*312 FILLER_0_14_253
*313 FILLER_0_14_265
*314 FILLER_0_14_27
*315 FILLER_0_14_277
*316 FILLER_0_14_289
*317 FILLER_0_14_29
*318 FILLER_0_14_3
*319 FILLER_0_14_301
*320 FILLER_0_14_307
*321 FILLER_0_14_309
*322 FILLER_0_14_321
*323 FILLER_0_14_333
*324 FILLER_0_14_345
*325 FILLER_0_14_41
*326 FILLER_0_14_53
*327 FILLER_0_14_65
*328 FILLER_0_14_77
*329 FILLER_0_14_83
*330 FILLER_0_14_85
*331 FILLER_0_14_97
*332 FILLER_0_15_105
*333 FILLER_0_15_111
*334 FILLER_0_15_113
*335 FILLER_0_15_125
*336 FILLER_0_15_137
*337 FILLER_0_15_149
*338 FILLER_0_15_15
*339 FILLER_0_15_161
*340 FILLER_0_15_167
*341 FILLER_0_15_169
*342 FILLER_0_15_181
*343 FILLER_0_15_193
*344 FILLER_0_15_205
*345 FILLER_0_15_217
*346 FILLER_0_15_223
*347 FILLER_0_15_225
*348 FILLER_0_15_237
*349 FILLER_0_15_249
*350 FILLER_0_15_261
*351 FILLER_0_15_27
*352 FILLER_0_15_273
*353 FILLER_0_15_279
*354 FILLER_0_15_281
*355 FILLER_0_15_293
*356 FILLER_0_15_3
*357 FILLER_0_15_305
*358 FILLER_0_15_317
*359 FILLER_0_15_329
*360 FILLER_0_15_335
*361 FILLER_0_15_337
*362 FILLER_0_15_349
*363 FILLER_0_15_39
*364 FILLER_0_15_51
*365 FILLER_0_15_55
*366 FILLER_0_15_57
*367 FILLER_0_15_69
*368 FILLER_0_15_81
*369 FILLER_0_15_93
*370 FILLER_0_16_109
*371 FILLER_0_16_121
*372 FILLER_0_16_133
*373 FILLER_0_16_139
*374 FILLER_0_16_141
*375 FILLER_0_16_15
*376 FILLER_0_16_153
*377 FILLER_0_16_165
*378 FILLER_0_16_177
*379 FILLER_0_16_189
*380 FILLER_0_16_195
*381 FILLER_0_16_197
*382 FILLER_0_16_209
*383 FILLER_0_16_221
*384 FILLER_0_16_233
*385 FILLER_0_16_245
*386 FILLER_0_16_251
*387 FILLER_0_16_253
*388 FILLER_0_16_265
*389 FILLER_0_16_27
*390 FILLER_0_16_277
*391 FILLER_0_16_289
*392 FILLER_0_16_29
*393 FILLER_0_16_3
*394 FILLER_0_16_301
*395 FILLER_0_16_307
*396 FILLER_0_16_309
*397 FILLER_0_16_321
*398 FILLER_0_16_333
*399 FILLER_0_16_345
*400 FILLER_0_16_41
*401 FILLER_0_16_53
*402 FILLER_0_16_65
*403 FILLER_0_16_77
*404 FILLER_0_16_83
*405 FILLER_0_16_85
*406 FILLER_0_16_97
*407 FILLER_0_17_105
*408 FILLER_0_17_111
*409 FILLER_0_17_113
*410 FILLER_0_17_125
*411 FILLER_0_17_137
*412 FILLER_0_17_149
*413 FILLER_0_17_15
*414 FILLER_0_17_161
*415 FILLER_0_17_167
*416 FILLER_0_17_169
*417 FILLER_0_17_181
*418 FILLER_0_17_193
*419 FILLER_0_17_205
*420 FILLER_0_17_217
*421 FILLER_0_17_223
*422 FILLER_0_17_225
*423 FILLER_0_17_237
*424 FILLER_0_17_249
*425 FILLER_0_17_261
*426 FILLER_0_17_27
*427 FILLER_0_17_273
*428 FILLER_0_17_279
*429 FILLER_0_17_281
*430 FILLER_0_17_293
*431 FILLER_0_17_3
*432 FILLER_0_17_305
*433 FILLER_0_17_317
*434 FILLER_0_17_329
*435 FILLER_0_17_335
*436 FILLER_0_17_337
*437 FILLER_0_17_349
*438 FILLER_0_17_39
*439 FILLER_0_17_51
*440 FILLER_0_17_55
*441 FILLER_0_17_57
*442 FILLER_0_17_69
*443 FILLER_0_17_81
*444 FILLER_0_17_93
*445 FILLER_0_18_109
*446 FILLER_0_18_121
*447 FILLER_0_18_133
*448 FILLER_0_18_139
*449 FILLER_0_18_141
*450 FILLER_0_18_15
*451 FILLER_0_18_153
*452 FILLER_0_18_165
*453 FILLER_0_18_177
*454 FILLER_0_18_189
*455 FILLER_0_18_195
*456 FILLER_0_18_197
*457 FILLER_0_18_209
*458 FILLER_0_18_221
*459 FILLER_0_18_233
*460 FILLER_0_18_245
*461 FILLER_0_18_251
*462 FILLER_0_18_253
*463 FILLER_0_18_265
*464 FILLER_0_18_27
*465 FILLER_0_18_277
*466 FILLER_0_18_289
*467 FILLER_0_18_29
*468 FILLER_0_18_3
*469 FILLER_0_18_301
*470 FILLER_0_18_307
*471 FILLER_0_18_309
*472 FILLER_0_18_321
*473 FILLER_0_18_333
*474 FILLER_0_18_345
*475 FILLER_0_18_41
*476 FILLER_0_18_53
*477 FILLER_0_18_65
*478 FILLER_0_18_77
*479 FILLER_0_18_83
*480 FILLER_0_18_85
*481 FILLER_0_18_97
*482 FILLER_0_19_105
*483 FILLER_0_19_111
*484 FILLER_0_19_113
*485 FILLER_0_19_125
*486 FILLER_0_19_137
*487 FILLER_0_19_149
*488 FILLER_0_19_15
*489 FILLER_0_19_161
*490 FILLER_0_19_167
*491 FILLER_0_19_169
*492 FILLER_0_19_181
*493 FILLER_0_19_193
*494 FILLER_0_19_205
*495 FILLER_0_19_217
*496 FILLER_0_19_223
*497 FILLER_0_19_225
*498 FILLER_0_19_237
*499 FILLER_0_19_249
*500 FILLER_0_19_261
*501 FILLER_0_19_27
*502 FILLER_0_19_273
*503 FILLER_0_19_279
*504 FILLER_0_19_281
*505 FILLER_0_19_293
*506 FILLER_0_19_3
*507 FILLER_0_19_305
*508 FILLER_0_19_317
*509 FILLER_0_19_329
*510 FILLER_0_19_335
*511 FILLER_0_19_337
*512 FILLER_0_19_349
*513 FILLER_0_19_39
*514 FILLER_0_19_51
*515 FILLER_0_19_55
*516 FILLER_0_19_57
*517 FILLER_0_19_69
*518 FILLER_0_19_81
*519 FILLER_0_19_93
*520 FILLER_0_1_105
*521 FILLER_0_1_111
*522 FILLER_0_1_113
*523 FILLER_0_1_125
*524 FILLER_0_1_137
*525 FILLER_0_1_149
*526 FILLER_0_1_15
*527 FILLER_0_1_161
*528 FILLER_0_1_167
*529 FILLER_0_1_169
*530 FILLER_0_1_181
*531 FILLER_0_1_193
*532 FILLER_0_1_205
*533 FILLER_0_1_217
*534 FILLER_0_1_223
*535 FILLER_0_1_225
*536 FILLER_0_1_237
*537 FILLER_0_1_249
*538 FILLER_0_1_261
*539 FILLER_0_1_27
*540 FILLER_0_1_273
*541 FILLER_0_1_279
*542 FILLER_0_1_281
*543 FILLER_0_1_293
*544 FILLER_0_1_3
*545 FILLER_0_1_305
*546 FILLER_0_1_317
*547 FILLER_0_1_329
*548 FILLER_0_1_335
*549 FILLER_0_1_337
*550 FILLER_0_1_349
*551 FILLER_0_1_39
*552 FILLER_0_1_51
*553 FILLER_0_1_55
*554 FILLER_0_1_57
*555 FILLER_0_1_69
*556 FILLER_0_1_81
*557 FILLER_0_1_93
*558 FILLER_0_20_109
*559 FILLER_0_20_121
*560 FILLER_0_20_133
*561 FILLER_0_20_139
*562 FILLER_0_20_141
*563 FILLER_0_20_15
*564 FILLER_0_20_153
*565 FILLER_0_20_165
*566 FILLER_0_20_177
*567 FILLER_0_20_189
*568 FILLER_0_20_195
*569 FILLER_0_20_197
*570 FILLER_0_20_209
*571 FILLER_0_20_221
*572 FILLER_0_20_233
*573 FILLER_0_20_245
*574 FILLER_0_20_251
*575 FILLER_0_20_253
*576 FILLER_0_20_265
*577 FILLER_0_20_27
*578 FILLER_0_20_277
*579 FILLER_0_20_289
*580 FILLER_0_20_29
*581 FILLER_0_20_3
*582 FILLER_0_20_301
*583 FILLER_0_20_307
*584 FILLER_0_20_309
*585 FILLER_0_20_321
*586 FILLER_0_20_333
*587 FILLER_0_20_345
*588 FILLER_0_20_41
*589 FILLER_0_20_53
*590 FILLER_0_20_65
*591 FILLER_0_20_77
*592 FILLER_0_20_83
*593 FILLER_0_20_85
*594 FILLER_0_20_97
*595 FILLER_0_21_105
*596 FILLER_0_21_111
*597 FILLER_0_21_113
*598 FILLER_0_21_125
*599 FILLER_0_21_137
*600 FILLER_0_21_149
*601 FILLER_0_21_15
*602 FILLER_0_21_161
*603 FILLER_0_21_167
*604 FILLER_0_21_169
*605 FILLER_0_21_181
*606 FILLER_0_21_193
*607 FILLER_0_21_205
*608 FILLER_0_21_217
*609 FILLER_0_21_223
*610 FILLER_0_21_225
*611 FILLER_0_21_237
*612 FILLER_0_21_249
*613 FILLER_0_21_261
*614 FILLER_0_21_27
*615 FILLER_0_21_273
*616 FILLER_0_21_279
*617 FILLER_0_21_281
*618 FILLER_0_21_293
*619 FILLER_0_21_3
*620 FILLER_0_21_305
*621 FILLER_0_21_317
*622 FILLER_0_21_329
*623 FILLER_0_21_335
*624 FILLER_0_21_337
*625 FILLER_0_21_349
*626 FILLER_0_21_39
*627 FILLER_0_21_51
*628 FILLER_0_21_55
*629 FILLER_0_21_57
*630 FILLER_0_21_69
*631 FILLER_0_21_81
*632 FILLER_0_21_93
*633 FILLER_0_22_109
*634 FILLER_0_22_121
*635 FILLER_0_22_133
*636 FILLER_0_22_139
*637 FILLER_0_22_141
*638 FILLER_0_22_15
*639 FILLER_0_22_153
*640 FILLER_0_22_165
*641 FILLER_0_22_177
*642 FILLER_0_22_189
*643 FILLER_0_22_195
*644 FILLER_0_22_197
*645 FILLER_0_22_209
*646 FILLER_0_22_221
*647 FILLER_0_22_233
*648 FILLER_0_22_245
*649 FILLER_0_22_251
*650 FILLER_0_22_253
*651 FILLER_0_22_265
*652 FILLER_0_22_27
*653 FILLER_0_22_277
*654 FILLER_0_22_289
*655 FILLER_0_22_29
*656 FILLER_0_22_3
*657 FILLER_0_22_301
*658 FILLER_0_22_307
*659 FILLER_0_22_309
*660 FILLER_0_22_321
*661 FILLER_0_22_333
*662 FILLER_0_22_345
*663 FILLER_0_22_41
*664 FILLER_0_22_53
*665 FILLER_0_22_65
*666 FILLER_0_22_77
*667 FILLER_0_22_83
*668 FILLER_0_22_85
*669 FILLER_0_22_97
*670 FILLER_0_23_105
*671 FILLER_0_23_111
*672 FILLER_0_23_113
*673 FILLER_0_23_125
*674 FILLER_0_23_137
*675 FILLER_0_23_149
*676 FILLER_0_23_15
*677 FILLER_0_23_161
*678 FILLER_0_23_167
*679 FILLER_0_23_169
*680 FILLER_0_23_181
*681 FILLER_0_23_193
*682 FILLER_0_23_205
*683 FILLER_0_23_217
*684 FILLER_0_23_223
*685 FILLER_0_23_225
*686 FILLER_0_23_237
*687 FILLER_0_23_249
*688 FILLER_0_23_261
*689 FILLER_0_23_27
*690 FILLER_0_23_273
*691 FILLER_0_23_279
*692 FILLER_0_23_281
*693 FILLER_0_23_293
*694 FILLER_0_23_3
*695 FILLER_0_23_305
*696 FILLER_0_23_317
*697 FILLER_0_23_329
*698 FILLER_0_23_335
*699 FILLER_0_23_337
*700 FILLER_0_23_349
*701 FILLER_0_23_39
*702 FILLER_0_23_51
*703 FILLER_0_23_55
*704 FILLER_0_23_57
*705 FILLER_0_23_69
*706 FILLER_0_23_81
*707 FILLER_0_23_93
*708 FILLER_0_24_109
*709 FILLER_0_24_121
*710 FILLER_0_24_133
*711 FILLER_0_24_139
*712 FILLER_0_24_141
*713 FILLER_0_24_15
*714 FILLER_0_24_153
*715 FILLER_0_24_165
*716 FILLER_0_24_177
*717 FILLER_0_24_189
*718 FILLER_0_24_195
*719 FILLER_0_24_197
*720 FILLER_0_24_209
*721 FILLER_0_24_221
*722 FILLER_0_24_233
*723 FILLER_0_24_245
*724 FILLER_0_24_251
*725 FILLER_0_24_253
*726 FILLER_0_24_265
*727 FILLER_0_24_27
*728 FILLER_0_24_277
*729 FILLER_0_24_289
*730 FILLER_0_24_29
*731 FILLER_0_24_3
*732 FILLER_0_24_301
*733 FILLER_0_24_307
*734 FILLER_0_24_309
*735 FILLER_0_24_321
*736 FILLER_0_24_333
*737 FILLER_0_24_345
*738 FILLER_0_24_41
*739 FILLER_0_24_53
*740 FILLER_0_24_65
*741 FILLER_0_24_77
*742 FILLER_0_24_83
*743 FILLER_0_24_85
*744 FILLER_0_24_97
*745 FILLER_0_25_105
*746 FILLER_0_25_111
*747 FILLER_0_25_113
*748 FILLER_0_25_125
*749 FILLER_0_25_137
*750 FILLER_0_25_149
*751 FILLER_0_25_15
*752 FILLER_0_25_161
*753 FILLER_0_25_167
*754 FILLER_0_25_169
*755 FILLER_0_25_181
*756 FILLER_0_25_193
*757 FILLER_0_25_205
*758 FILLER_0_25_217
*759 FILLER_0_25_223
*760 FILLER_0_25_225
*761 FILLER_0_25_237
*762 FILLER_0_25_249
*763 FILLER_0_25_261
*764 FILLER_0_25_27
*765 FILLER_0_25_273
*766 FILLER_0_25_279
*767 FILLER_0_25_281
*768 FILLER_0_25_293
*769 FILLER_0_25_3
*770 FILLER_0_25_305
*771 FILLER_0_25_317
*772 FILLER_0_25_329
*773 FILLER_0_25_335
*774 FILLER_0_25_337
*775 FILLER_0_25_349
*776 FILLER_0_25_39
*777 FILLER_0_25_51
*778 FILLER_0_25_55
*779 FILLER_0_25_57
*780 FILLER_0_25_69
*781 FILLER_0_25_81
*782 FILLER_0_25_93
*783 FILLER_0_26_109
*784 FILLER_0_26_121
*785 FILLER_0_26_133
*786 FILLER_0_26_139
*787 FILLER_0_26_141
*788 FILLER_0_26_15
*789 FILLER_0_26_153
*790 FILLER_0_26_165
*791 FILLER_0_26_177
*792 FILLER_0_26_189
*793 FILLER_0_26_195
*794 FILLER_0_26_197
*795 FILLER_0_26_209
*796 FILLER_0_26_221
*797 FILLER_0_26_233
*798 FILLER_0_26_245
*799 FILLER_0_26_251
*800 FILLER_0_26_253
*801 FILLER_0_26_265
*802 FILLER_0_26_27
*803 FILLER_0_26_277
*804 FILLER_0_26_289
*805 FILLER_0_26_29
*806 FILLER_0_26_3
*807 FILLER_0_26_301
*808 FILLER_0_26_307
*809 FILLER_0_26_309
*810 FILLER_0_26_321
*811 FILLER_0_26_333
*812 FILLER_0_26_345
*813 FILLER_0_26_41
*814 FILLER_0_26_53
*815 FILLER_0_26_65
*816 FILLER_0_26_77
*817 FILLER_0_26_83
*818 FILLER_0_26_85
*819 FILLER_0_26_97
*820 FILLER_0_27_105
*821 FILLER_0_27_111
*822 FILLER_0_27_113
*823 FILLER_0_27_125
*824 FILLER_0_27_137
*825 FILLER_0_27_149
*826 FILLER_0_27_15
*827 FILLER_0_27_161
*828 FILLER_0_27_167
*829 FILLER_0_27_169
*830 FILLER_0_27_181
*831 FILLER_0_27_193
*832 FILLER_0_27_205
*833 FILLER_0_27_217
*834 FILLER_0_27_223
*835 FILLER_0_27_225
*836 FILLER_0_27_237
*837 FILLER_0_27_249
*838 FILLER_0_27_261
*839 FILLER_0_27_27
*840 FILLER_0_27_273
*841 FILLER_0_27_279
*842 FILLER_0_27_281
*843 FILLER_0_27_293
*844 FILLER_0_27_3
*845 FILLER_0_27_305
*846 FILLER_0_27_317
*847 FILLER_0_27_329
*848 FILLER_0_27_335
*849 FILLER_0_27_337
*850 FILLER_0_27_349
*851 FILLER_0_27_39
*852 FILLER_0_27_51
*853 FILLER_0_27_55
*854 FILLER_0_27_57
*855 FILLER_0_27_69
*856 FILLER_0_27_81
*857 FILLER_0_27_93
*858 FILLER_0_28_109
*859 FILLER_0_28_121
*860 FILLER_0_28_133
*861 FILLER_0_28_139
*862 FILLER_0_28_141
*863 FILLER_0_28_15
*864 FILLER_0_28_153
*865 FILLER_0_28_165
*866 FILLER_0_28_177
*867 FILLER_0_28_189
*868 FILLER_0_28_195
*869 FILLER_0_28_197
*870 FILLER_0_28_209
*871 FILLER_0_28_221
*872 FILLER_0_28_233
*873 FILLER_0_28_245
*874 FILLER_0_28_251
*875 FILLER_0_28_253
*876 FILLER_0_28_265
*877 FILLER_0_28_27
*878 FILLER_0_28_277
*879 FILLER_0_28_289
*880 FILLER_0_28_29
*881 FILLER_0_28_3
*882 FILLER_0_28_301
*883 FILLER_0_28_307
*884 FILLER_0_28_309
*885 FILLER_0_28_321
*886 FILLER_0_28_333
*887 FILLER_0_28_345
*888 FILLER_0_28_41
*889 FILLER_0_28_53
*890 FILLER_0_28_65
*891 FILLER_0_28_77
*892 FILLER_0_28_83
*893 FILLER_0_28_85
*894 FILLER_0_28_97
*895 FILLER_0_29_105
*896 FILLER_0_29_111
*897 FILLER_0_29_113
*898 FILLER_0_29_125
*899 FILLER_0_29_137
*900 FILLER_0_29_149
*901 FILLER_0_29_15
*902 FILLER_0_29_161
*903 FILLER_0_29_167
*904 FILLER_0_29_169
*905 FILLER_0_29_181
*906 FILLER_0_29_193
*907 FILLER_0_29_205
*908 FILLER_0_29_217
*909 FILLER_0_29_223
*910 FILLER_0_29_225
*911 FILLER_0_29_237
*912 FILLER_0_29_249
*913 FILLER_0_29_261
*914 FILLER_0_29_27
*915 FILLER_0_29_273
*916 FILLER_0_29_279
*917 FILLER_0_29_281
*918 FILLER_0_29_293
*919 FILLER_0_29_3
*920 FILLER_0_29_305
*921 FILLER_0_29_317
*922 FILLER_0_29_329
*923 FILLER_0_29_335
*924 FILLER_0_29_337
*925 FILLER_0_29_349
*926 FILLER_0_29_39
*927 FILLER_0_29_51
*928 FILLER_0_29_55
*929 FILLER_0_29_57
*930 FILLER_0_29_69
*931 FILLER_0_29_81
*932 FILLER_0_29_93
*933 FILLER_0_2_109
*934 FILLER_0_2_121
*935 FILLER_0_2_133
*936 FILLER_0_2_139
*937 FILLER_0_2_141
*938 FILLER_0_2_15
*939 FILLER_0_2_153
*940 FILLER_0_2_165
*941 FILLER_0_2_177
*942 FILLER_0_2_189
*943 FILLER_0_2_195
*944 FILLER_0_2_197
*945 FILLER_0_2_209
*946 FILLER_0_2_221
*947 FILLER_0_2_233
*948 FILLER_0_2_245
*949 FILLER_0_2_251
*950 FILLER_0_2_253
*951 FILLER_0_2_265
*952 FILLER_0_2_27
*953 FILLER_0_2_277
*954 FILLER_0_2_289
*955 FILLER_0_2_29
*956 FILLER_0_2_3
*957 FILLER_0_2_301
*958 FILLER_0_2_307
*959 FILLER_0_2_309
*960 FILLER_0_2_321
*961 FILLER_0_2_333
*962 FILLER_0_2_345
*963 FILLER_0_2_41
*964 FILLER_0_2_53
*965 FILLER_0_2_65
*966 FILLER_0_2_77
*967 FILLER_0_2_83
*968 FILLER_0_2_85
*969 FILLER_0_2_97
*970 FILLER_0_30_109
*971 FILLER_0_30_121
*972 FILLER_0_30_133
*973 FILLER_0_30_139
*974 FILLER_0_30_141
*975 FILLER_0_30_15
*976 FILLER_0_30_153
*977 FILLER_0_30_165
*978 FILLER_0_30_177
*979 FILLER_0_30_189
*980 FILLER_0_30_195
*981 FILLER_0_30_197
*982 FILLER_0_30_209
*983 FILLER_0_30_221
*984 FILLER_0_30_233
*985 FILLER_0_30_245
*986 FILLER_0_30_251
*987 FILLER_0_30_253
*988 FILLER_0_30_265
*989 FILLER_0_30_27
*990 FILLER_0_30_277
*991 FILLER_0_30_289
*992 FILLER_0_30_29
*993 FILLER_0_30_3
*994 FILLER_0_30_301
*995 FILLER_0_30_307
*996 FILLER_0_30_309
*997 FILLER_0_30_321
*998 FILLER_0_30_333
*999 FILLER_0_30_345
*1000 FILLER_0_30_41
*1001 FILLER_0_30_53
*1002 FILLER_0_30_65
*1003 FILLER_0_30_77
*1004 FILLER_0_30_83
*1005 FILLER_0_30_85
*1006 FILLER_0_30_97
*1007 FILLER_0_31_105
*1008 FILLER_0_31_111
*1009 FILLER_0_31_113
*1010 FILLER_0_31_125
*1011 FILLER_0_31_137
*1012 FILLER_0_31_149
*1013 FILLER_0_31_15
*1014 FILLER_0_31_161
*1015 FILLER_0_31_167
*1016 FILLER_0_31_169
*1017 FILLER_0_31_181
*1018 FILLER_0_31_193
*1019 FILLER_0_31_205
*1020 FILLER_0_31_217
*1021 FILLER_0_31_223
*1022 FILLER_0_31_225
*1023 FILLER_0_31_237
*1024 FILLER_0_31_253
*1025 FILLER_0_31_27
*1026 FILLER_0_31_271
*1027 FILLER_0_31_279
*1028 FILLER_0_31_3
*1029 FILLER_0_31_300
*1030 FILLER_0_31_316
*1031 FILLER_0_31_328
*1032 FILLER_0_31_337
*1033 FILLER_0_31_349
*1034 FILLER_0_31_39
*1035 FILLER_0_31_51
*1036 FILLER_0_31_55
*1037 FILLER_0_31_57
*1038 FILLER_0_31_69
*1039 FILLER_0_31_81
*1040 FILLER_0_31_93
*1041 FILLER_0_32_109
*1042 FILLER_0_32_121
*1043 FILLER_0_32_133
*1044 FILLER_0_32_139
*1045 FILLER_0_32_141
*1046 FILLER_0_32_15
*1047 FILLER_0_32_153
*1048 FILLER_0_32_165
*1049 FILLER_0_32_177
*1050 FILLER_0_32_189
*1051 FILLER_0_32_195
*1052 FILLER_0_32_197
*1053 FILLER_0_32_209
*1054 FILLER_0_32_221
*1055 FILLER_0_32_27
*1056 FILLER_0_32_284
*1057 FILLER_0_32_29
*1058 FILLER_0_32_3
*1059 FILLER_0_32_325
*1060 FILLER_0_32_337
*1061 FILLER_0_32_349
*1062 FILLER_0_32_41
*1063 FILLER_0_32_53
*1064 FILLER_0_32_65
*1065 FILLER_0_32_77
*1066 FILLER_0_32_83
*1067 FILLER_0_32_85
*1068 FILLER_0_32_97
*1069 FILLER_0_33_105
*1070 FILLER_0_33_111
*1071 FILLER_0_33_113
*1072 FILLER_0_33_125
*1073 FILLER_0_33_137
*1074 FILLER_0_33_149
*1075 FILLER_0_33_15
*1076 FILLER_0_33_161
*1077 FILLER_0_33_167
*1078 FILLER_0_33_169
*1079 FILLER_0_33_181
*1080 FILLER_0_33_193
*1081 FILLER_0_33_205
*1082 FILLER_0_33_217
*1083 FILLER_0_33_223
*1084 FILLER_0_33_225
*1085 FILLER_0_33_237
*1086 FILLER_0_33_242
*1087 FILLER_0_33_250
*1088 FILLER_0_33_264
*1089 FILLER_0_33_27
*1090 FILLER_0_33_273
*1091 FILLER_0_33_279
*1092 FILLER_0_33_297
*1093 FILLER_0_33_3
*1094 FILLER_0_33_324
*1095 FILLER_0_33_337
*1096 FILLER_0_33_349
*1097 FILLER_0_33_39
*1098 FILLER_0_33_51
*1099 FILLER_0_33_55
*1100 FILLER_0_33_57
*1101 FILLER_0_33_69
*1102 FILLER_0_33_81
*1103 FILLER_0_33_93
*1104 FILLER_0_34_109
*1105 FILLER_0_34_121
*1106 FILLER_0_34_133
*1107 FILLER_0_34_139
*1108 FILLER_0_34_141
*1109 FILLER_0_34_15
*1110 FILLER_0_34_153
*1111 FILLER_0_34_165
*1112 FILLER_0_34_177
*1113 FILLER_0_34_189
*1114 FILLER_0_34_195
*1115 FILLER_0_34_197
*1116 FILLER_0_34_209
*1117 FILLER_0_34_221
*1118 FILLER_0_34_229
*1119 FILLER_0_34_251
*1120 FILLER_0_34_253
*1121 FILLER_0_34_27
*1122 FILLER_0_34_283
*1123 FILLER_0_34_287
*1124 FILLER_0_34_29
*1125 FILLER_0_34_3
*1126 FILLER_0_34_325
*1127 FILLER_0_34_337
*1128 FILLER_0_34_349
*1129 FILLER_0_34_41
*1130 FILLER_0_34_53
*1131 FILLER_0_34_65
*1132 FILLER_0_34_77
*1133 FILLER_0_34_83
*1134 FILLER_0_34_85
*1135 FILLER_0_34_97
*1136 FILLER_0_35_105
*1137 FILLER_0_35_111
*1138 FILLER_0_35_113
*1139 FILLER_0_35_125
*1140 FILLER_0_35_137
*1141 FILLER_0_35_149
*1142 FILLER_0_35_15
*1143 FILLER_0_35_161
*1144 FILLER_0_35_167
*1145 FILLER_0_35_169
*1146 FILLER_0_35_181
*1147 FILLER_0_35_193
*1148 FILLER_0_35_205
*1149 FILLER_0_35_217
*1150 FILLER_0_35_223
*1151 FILLER_0_35_225
*1152 FILLER_0_35_233
*1153 FILLER_0_35_257
*1154 FILLER_0_35_261
*1155 FILLER_0_35_265
*1156 FILLER_0_35_27
*1157 FILLER_0_35_3
*1158 FILLER_0_35_301
*1159 FILLER_0_35_328
*1160 FILLER_0_35_337
*1161 FILLER_0_35_349
*1162 FILLER_0_35_39
*1163 FILLER_0_35_51
*1164 FILLER_0_35_55
*1165 FILLER_0_35_57
*1166 FILLER_0_35_69
*1167 FILLER_0_35_81
*1168 FILLER_0_35_93
*1169 FILLER_0_36_109
*1170 FILLER_0_36_121
*1171 FILLER_0_36_133
*1172 FILLER_0_36_139
*1173 FILLER_0_36_141
*1174 FILLER_0_36_15
*1175 FILLER_0_36_153
*1176 FILLER_0_36_165
*1177 FILLER_0_36_177
*1178 FILLER_0_36_189
*1179 FILLER_0_36_195
*1180 FILLER_0_36_197
*1181 FILLER_0_36_209
*1182 FILLER_0_36_221
*1183 FILLER_0_36_233
*1184 FILLER_0_36_245
*1185 FILLER_0_36_260
*1186 FILLER_0_36_268
*1187 FILLER_0_36_27
*1188 FILLER_0_36_276
*1189 FILLER_0_36_282
*1190 FILLER_0_36_29
*1191 FILLER_0_36_298
*1192 FILLER_0_36_3
*1193 FILLER_0_36_306
*1194 FILLER_0_36_309
*1195 FILLER_0_36_338
*1196 FILLER_0_36_350
*1197 FILLER_0_36_41
*1198 FILLER_0_36_53
*1199 FILLER_0_36_65
*1200 FILLER_0_36_77
*1201 FILLER_0_36_83
*1202 FILLER_0_36_85
*1203 FILLER_0_36_97
*1204 FILLER_0_37_105
*1205 FILLER_0_37_111
*1206 FILLER_0_37_113
*1207 FILLER_0_37_125
*1208 FILLER_0_37_137
*1209 FILLER_0_37_149
*1210 FILLER_0_37_15
*1211 FILLER_0_37_161
*1212 FILLER_0_37_167
*1213 FILLER_0_37_169
*1214 FILLER_0_37_181
*1215 FILLER_0_37_193
*1216 FILLER_0_37_205
*1217 FILLER_0_37_217
*1218 FILLER_0_37_223
*1219 FILLER_0_37_225
*1220 FILLER_0_37_237
*1221 FILLER_0_37_245
*1222 FILLER_0_37_251
*1223 FILLER_0_37_260
*1224 FILLER_0_37_269
*1225 FILLER_0_37_27
*1226 FILLER_0_37_274
*1227 FILLER_0_37_281
*1228 FILLER_0_37_3
*1229 FILLER_0_37_307
*1230 FILLER_0_37_319
*1231 FILLER_0_37_331
*1232 FILLER_0_37_335
*1233 FILLER_0_37_337
*1234 FILLER_0_37_349
*1235 FILLER_0_37_39
*1236 FILLER_0_37_51
*1237 FILLER_0_37_55
*1238 FILLER_0_37_57
*1239 FILLER_0_37_69
*1240 FILLER_0_37_81
*1241 FILLER_0_37_93
*1242 FILLER_0_38_104
*1243 FILLER_0_38_110
*1244 FILLER_0_38_116
*1245 FILLER_0_38_122
*1246 FILLER_0_38_128
*1247 FILLER_0_38_134
*1248 FILLER_0_38_141
*1249 FILLER_0_38_146
*1250 FILLER_0_38_15
*1251 FILLER_0_38_152
*1252 FILLER_0_38_158
*1253 FILLER_0_38_164
*1254 FILLER_0_38_172
*1255 FILLER_0_38_176
*1256 FILLER_0_38_182
*1257 FILLER_0_38_188
*1258 FILLER_0_38_194
*1259 FILLER_0_38_200
*1260 FILLER_0_38_206
*1261 FILLER_0_38_218
*1262 FILLER_0_38_225
*1263 FILLER_0_38_237
*1264 FILLER_0_38_249
*1265 FILLER_0_38_269
*1266 FILLER_0_38_27
*1267 FILLER_0_38_277
*1268 FILLER_0_38_29
*1269 FILLER_0_38_3
*1270 FILLER_0_38_300
*1271 FILLER_0_38_304
*1272 FILLER_0_38_309
*1273 FILLER_0_38_321
*1274 FILLER_0_38_333
*1275 FILLER_0_38_337
*1276 FILLER_0_38_349
*1277 FILLER_0_38_41
*1278 FILLER_0_38_53
*1279 FILLER_0_38_57
*1280 FILLER_0_38_68
*1281 FILLER_0_38_74
*1282 FILLER_0_38_80
*1283 FILLER_0_38_88
*1284 FILLER_0_38_92
*1285 FILLER_0_38_98
*1286 FILLER_0_3_105
*1287 FILLER_0_3_111
*1288 FILLER_0_3_113
*1289 FILLER_0_3_125
*1290 FILLER_0_3_137
*1291 FILLER_0_3_149
*1292 FILLER_0_3_15
*1293 FILLER_0_3_161
*1294 FILLER_0_3_167
*1295 FILLER_0_3_169
*1296 FILLER_0_3_181
*1297 FILLER_0_3_193
*1298 FILLER_0_3_205
*1299 FILLER_0_3_217
*1300 FILLER_0_3_223
*1301 FILLER_0_3_225
*1302 FILLER_0_3_237
*1303 FILLER_0_3_249
*1304 FILLER_0_3_261
*1305 FILLER_0_3_27
*1306 FILLER_0_3_273
*1307 FILLER_0_3_279
*1308 FILLER_0_3_281
*1309 FILLER_0_3_293
*1310 FILLER_0_3_3
*1311 FILLER_0_3_305
*1312 FILLER_0_3_317
*1313 FILLER_0_3_329
*1314 FILLER_0_3_335
*1315 FILLER_0_3_337
*1316 FILLER_0_3_349
*1317 FILLER_0_3_39
*1318 FILLER_0_3_51
*1319 FILLER_0_3_55
*1320 FILLER_0_3_57
*1321 FILLER_0_3_69
*1322 FILLER_0_3_81
*1323 FILLER_0_3_93
*1324 FILLER_0_4_109
*1325 FILLER_0_4_121
*1326 FILLER_0_4_133
*1327 FILLER_0_4_139
*1328 FILLER_0_4_141
*1329 FILLER_0_4_15
*1330 FILLER_0_4_153
*1331 FILLER_0_4_165
*1332 FILLER_0_4_177
*1333 FILLER_0_4_189
*1334 FILLER_0_4_195
*1335 FILLER_0_4_197
*1336 FILLER_0_4_209
*1337 FILLER_0_4_221
*1338 FILLER_0_4_233
*1339 FILLER_0_4_245
*1340 FILLER_0_4_251
*1341 FILLER_0_4_253
*1342 FILLER_0_4_265
*1343 FILLER_0_4_27
*1344 FILLER_0_4_277
*1345 FILLER_0_4_289
*1346 FILLER_0_4_29
*1347 FILLER_0_4_3
*1348 FILLER_0_4_301
*1349 FILLER_0_4_307
*1350 FILLER_0_4_309
*1351 FILLER_0_4_321
*1352 FILLER_0_4_333
*1353 FILLER_0_4_345
*1354 FILLER_0_4_41
*1355 FILLER_0_4_53
*1356 FILLER_0_4_65
*1357 FILLER_0_4_77
*1358 FILLER_0_4_83
*1359 FILLER_0_4_85
*1360 FILLER_0_4_97
*1361 FILLER_0_5_105
*1362 FILLER_0_5_111
*1363 FILLER_0_5_113
*1364 FILLER_0_5_125
*1365 FILLER_0_5_137
*1366 FILLER_0_5_149
*1367 FILLER_0_5_15
*1368 FILLER_0_5_161
*1369 FILLER_0_5_167
*1370 FILLER_0_5_169
*1371 FILLER_0_5_181
*1372 FILLER_0_5_193
*1373 FILLER_0_5_205
*1374 FILLER_0_5_217
*1375 FILLER_0_5_223
*1376 FILLER_0_5_225
*1377 FILLER_0_5_237
*1378 FILLER_0_5_249
*1379 FILLER_0_5_261
*1380 FILLER_0_5_27
*1381 FILLER_0_5_273
*1382 FILLER_0_5_279
*1383 FILLER_0_5_281
*1384 FILLER_0_5_293
*1385 FILLER_0_5_3
*1386 FILLER_0_5_305
*1387 FILLER_0_5_317
*1388 FILLER_0_5_329
*1389 FILLER_0_5_335
*1390 FILLER_0_5_337
*1391 FILLER_0_5_349
*1392 FILLER_0_5_39
*1393 FILLER_0_5_51
*1394 FILLER_0_5_55
*1395 FILLER_0_5_57
*1396 FILLER_0_5_69
*1397 FILLER_0_5_81
*1398 FILLER_0_5_93
*1399 FILLER_0_6_109
*1400 FILLER_0_6_121
*1401 FILLER_0_6_133
*1402 FILLER_0_6_139
*1403 FILLER_0_6_141
*1404 FILLER_0_6_15
*1405 FILLER_0_6_153
*1406 FILLER_0_6_165
*1407 FILLER_0_6_177
*1408 FILLER_0_6_189
*1409 FILLER_0_6_195
*1410 FILLER_0_6_197
*1411 FILLER_0_6_209
*1412 FILLER_0_6_221
*1413 FILLER_0_6_233
*1414 FILLER_0_6_245
*1415 FILLER_0_6_251
*1416 FILLER_0_6_253
*1417 FILLER_0_6_265
*1418 FILLER_0_6_27
*1419 FILLER_0_6_277
*1420 FILLER_0_6_289
*1421 FILLER_0_6_29
*1422 FILLER_0_6_3
*1423 FILLER_0_6_301
*1424 FILLER_0_6_307
*1425 FILLER_0_6_309
*1426 FILLER_0_6_321
*1427 FILLER_0_6_333
*1428 FILLER_0_6_345
*1429 FILLER_0_6_41
*1430 FILLER_0_6_53
*1431 FILLER_0_6_65
*1432 FILLER_0_6_77
*1433 FILLER_0_6_83
*1434 FILLER_0_6_85
*1435 FILLER_0_6_97
*1436 FILLER_0_7_105
*1437 FILLER_0_7_111
*1438 FILLER_0_7_113
*1439 FILLER_0_7_125
*1440 FILLER_0_7_137
*1441 FILLER_0_7_149
*1442 FILLER_0_7_15
*1443 FILLER_0_7_161
*1444 FILLER_0_7_167
*1445 FILLER_0_7_169
*1446 FILLER_0_7_181
*1447 FILLER_0_7_193
*1448 FILLER_0_7_205
*1449 FILLER_0_7_217
*1450 FILLER_0_7_223
*1451 FILLER_0_7_225
*1452 FILLER_0_7_237
*1453 FILLER_0_7_249
*1454 FILLER_0_7_261
*1455 FILLER_0_7_27
*1456 FILLER_0_7_273
*1457 FILLER_0_7_279
*1458 FILLER_0_7_281
*1459 FILLER_0_7_293
*1460 FILLER_0_7_3
*1461 FILLER_0_7_305
*1462 FILLER_0_7_317
*1463 FILLER_0_7_329
*1464 FILLER_0_7_335
*1465 FILLER_0_7_337
*1466 FILLER_0_7_349
*1467 FILLER_0_7_39
*1468 FILLER_0_7_51