*SPEF "ieee 1481-1999"
*DESIGN "tt_um_topLevel_derekabarca"
*DATE "11:11:11 Fri 11 11, 1111"
*VENDOR "OpenRCX"
*PROGRAM "Parallel Extraction"
*VERSION "1.0"
*DESIGN_FLOW "NAME_SCOPE LOCAL" "PIN_CAP NONE"
*DIVIDER /
*DELIMITER :
*BUS_DELIMITER []
*T_UNIT 1 NS
*C_UNIT 1 PF
*R_UNIT 1 OHM
*L_UNIT 1 HENRY

*NAME_MAP
*3 clk
*4 ena
*5 rst_n
*6 ui_in[0]
*7 ui_in[1]
*8 ui_in[2]
*9 ui_in[3]
*10 ui_in[4]
*11 ui_in[5]
*12 ui_in[6]
*13 ui_in[7]
*14 uio_in[0]
*15 uio_in[1]
*16 uio_in[2]
*17 uio_in[3]
*18 uio_in[4]
*19 uio_in[5]
*20 uio_in[6]
*21 uio_in[7]
*22 net2
*23 net3
*24 net4
*25 net5
*26 net6
*27 net7
*28 net8
*29 net9
*30 net10
*31 net11
*32 net12
*33 net13
*34 net14
*35 net15
*36 net16
*37 net17
*38 uo_out[0]
*39 net18
*40 net19
*41 net20
*42 net21
*43 net22
*44 net23
*45 net24
*46 _000_
*47 _001_
*48 _002_
*49 _003_
*50 _004_
*51 _005_
*52 _006_
*53 _007_
*54 _008_
*55 _009_
*56 _010_
*57 _011_
*58 _012_
*59 _013_
*60 _014_
*61 _015_
*62 _016_
*63 _017_
*64 _018_
*65 _019_
*66 _020_
*67 _021_
*68 _022_
*69 _023_
*70 _024_
*71 _025_
*72 _026_
*73 _027_
*74 _028_
*75 _029_
*76 _030_
*77 _031_
*78 _032_
*79 _033_
*80 clknet_0_clk
*81 clknet_1_0__leaf_clk
*82 clknet_1_1__leaf_clk
*83 net1
*84 net25
*85 net26
*86 net27
*87 net28
*88 net29
*89 net30
*90 net31
*91 net32
*92 net33
*93 net34
*94 net35
*95 neuron1\.count\[0\]
*96 neuron1\.count\[1\]
*97 neuron1\.count\[2\]
*98 neuron1\.spike
*99 neuron2\.count\[0\]
*100 neuron2\.count\[1\]
*101 neuron2\.count\[2\]
*102 neuron2\.spike
*103 spike_output
*104 synapse1\.delay_counter\[0\]
*105 synapse1\.delay_counter\[1\]
*106 synapse2\.delay_counter\[0\]
*107 synapse2\.delay_counter\[1\]
*108 FILLER_0_0_109
*109 FILLER_0_0_113
*110 FILLER_0_0_125
*111 FILLER_0_0_137
*112 FILLER_0_0_141
*113 FILLER_0_0_15
*114 FILLER_0_0_153
*115 FILLER_0_0_165
*116 FILLER_0_0_169
*117 FILLER_0_0_181
*118 FILLER_0_0_193
*119 FILLER_0_0_197
*120 FILLER_0_0_209
*121 FILLER_0_0_221
*122 FILLER_0_0_225
*123 FILLER_0_0_237
*124 FILLER_0_0_249
*125 FILLER_0_0_253
*126 FILLER_0_0_265
*127 FILLER_0_0_27
*128 FILLER_0_0_277
*129 FILLER_0_0_281
*130 FILLER_0_0_29
*131 FILLER_0_0_293
*132 FILLER_0_0_3
*133 FILLER_0_0_305
*134 FILLER_0_0_309
*135 FILLER_0_0_321
*136 FILLER_0_0_333
*137 FILLER_0_0_337
*138 FILLER_0_0_349
*139 FILLER_0_0_41
*140 FILLER_0_0_53
*141 FILLER_0_0_57
*142 FILLER_0_0_69
*143 FILLER_0_0_81
*144 FILLER_0_0_85
*145 FILLER_0_0_97
*146 FILLER_0_10_109
*147 FILLER_0_10_121
*148 FILLER_0_10_133
*149 FILLER_0_10_139
*150 FILLER_0_10_141
*151 FILLER_0_10_15
*152 FILLER_0_10_153
*153 FILLER_0_10_165
*154 FILLER_0_10_177
*155 FILLER_0_10_189
*156 FILLER_0_10_195
*157 FILLER_0_10_197
*158 FILLER_0_10_209
*159 FILLER_0_10_221
*160 FILLER_0_10_233
*161 FILLER_0_10_245
*162 FILLER_0_10_251
*163 FILLER_0_10_253
*164 FILLER_0_10_265
*165 FILLER_0_10_27
*166 FILLER_0_10_277
*167 FILLER_0_10_289
*168 FILLER_0_10_29
*169 FILLER_0_10_3
*170 FILLER_0_10_301
*171 FILLER_0_10_307
*172 FILLER_0_10_309
*173 FILLER_0_10_321
*174 FILLER_0_10_333
*175 FILLER_0_10_345
*176 FILLER_0_10_41
*177 FILLER_0_10_53
*178 FILLER_0_10_65
*179 FILLER_0_10_77
*180 FILLER_0_10_83
*181 FILLER_0_10_85
*182 FILLER_0_10_97
*183 FILLER_0_11_105
*184 FILLER_0_11_111
*185 FILLER_0_11_113
*186 FILLER_0_11_125
*187 FILLER_0_11_137
*188 FILLER_0_11_149
*189 FILLER_0_11_15
*190 FILLER_0_11_161
*191 FILLER_0_11_167
*192 FILLER_0_11_169
*193 FILLER_0_11_181
*194 FILLER_0_11_193
*195 FILLER_0_11_205
*196 FILLER_0_11_217
*197 FILLER_0_11_223
*198 FILLER_0_11_225
*199 FILLER_0_11_237
*200 FILLER_0_11_249
*201 FILLER_0_11_261
*202 FILLER_0_11_27
*203 FILLER_0_11_273
*204 FILLER_0_11_279
*205 FILLER_0_11_281
*206 FILLER_0_11_293
*207 FILLER_0_11_3
*208 FILLER_0_11_305
*209 FILLER_0_11_317
*210 FILLER_0_11_329
*211 FILLER_0_11_335
*212 FILLER_0_11_337
*213 FILLER_0_11_349
*214 FILLER_0_11_39
*215 FILLER_0_11_51
*216 FILLER_0_11_55
*217 FILLER_0_11_57
*218 FILLER_0_11_69
*219 FILLER_0_11_81
*220 FILLER_0_11_93
*221 FILLER_0_12_109
*222 FILLER_0_12_121
*223 FILLER_0_12_133
*224 FILLER_0_12_139
*225 FILLER_0_12_141
*226 FILLER_0_12_15
*227 FILLER_0_12_153
*228 FILLER_0_12_165
*229 FILLER_0_12_177
*230 FILLER_0_12_189
*231 FILLER_0_12_195
*232 FILLER_0_12_197
*233 FILLER_0_12_209
*234 FILLER_0_12_221
*235 FILLER_0_12_233
*236 FILLER_0_12_245
*237 FILLER_0_12_251
*238 FILLER_0_12_253
*239 FILLER_0_12_265
*240 FILLER_0_12_27
*241 FILLER_0_12_277
*242 FILLER_0_12_289
*243 FILLER_0_12_29
*244 FILLER_0_12_3
*245 FILLER_0_12_301
*246 FILLER_0_12_307
*247 FILLER_0_12_309
*248 FILLER_0_12_321
*249 FILLER_0_12_333
*250 FILLER_0_12_345
*251 FILLER_0_12_41
*252 FILLER_0_12_53
*253 FILLER_0_12_65
*254 FILLER_0_12_77
*255 FILLER_0_12_83
*256 FILLER_0_12_85
*257 FILLER_0_12_97
*258 FILLER_0_13_105
*259 FILLER_0_13_111
*260 FILLER_0_13_113
*261 FILLER_0_13_125
*262 FILLER_0_13_137
*263 FILLER_0_13_149
*264 FILLER_0_13_15
*265 FILLER_0_13_161
*266 FILLER_0_13_167
*267 FILLER_0_13_169
*268 FILLER_0_13_181
*269 FILLER_0_13_193
*270 FILLER_0_13_205
*271 FILLER_0_13_217
*272 FILLER_0_13_223
*273 FILLER_0_13_225
*274 FILLER_0_13_237
*275 FILLER_0_13_249
*276 FILLER_0_13_261
*277 FILLER_0_13_27
*278 FILLER_0_13_273
*279 FILLER_0_13_279
*280 FILLER_0_13_281
*281 FILLER_0_13_293
*282 FILLER_0_13_3
*283 FILLER_0_13_305
*284 FILLER_0_13_317
*285 FILLER_0_13_329
*286 FILLER_0_13_335
*287 FILLER_0_13_337
*288 FILLER_0_13_349
*289 FILLER_0_13_39
*290 FILLER_0_13_51
*291 FILLER_0_13_55
*292 FILLER_0_13_57
*293 FILLER_0_13_69
*294 FILLER_0_13_81
*295 FILLER_0_13_93
*296 FILLER_0_14_109
*297 FILLER_0_14_121
*298 FILLER_0_14_133
*299 FILLER_0_14_139
*300 FILLER_0_14_141
*301 FILLER_0_14_15
*302 FILLER_0_14_153
*303 FILLER_0_14_165
*304 FILLER_0_14_177
*305 FILLER_0_14_189
*306 FILLER_0_14_195
*307 FILLER_0_14_197
*308 FILLER_0_14_209
*309 FILLER_0_14_221
*310 FILLER_0_14_233
*311 FILLER_0_14_245
*312 FILLER_0_14_251
*313 FILLER_0_14_253
*314 FILLER_0_14_265
*315 FILLER_0_14_27
*316 FILLER_0_14_277
*317 FILLER_0_14_289
*318 FILLER_0_14_29
*319 FILLER_0_14_3
*320 FILLER_0_14_301
*321 FILLER_0_14_307
*322 FILLER_0_14_309
*323 FILLER_0_14_321
*324 FILLER_0_14_333
*325 FILLER_0_14_345
*326 FILLER_0_14_41
*327 FILLER_0_14_53
*328 FILLER_0_14_65
*329 FILLER_0_14_77
*330 FILLER_0_14_83
*331 FILLER_0_14_85
*332 FILLER_0_14_97
*333 FILLER_0_15_105
*334 FILLER_0_15_111
*335 FILLER_0_15_113
*336 FILLER_0_15_125
*337 FILLER_0_15_137
*338 FILLER_0_15_149
*339 FILLER_0_15_15
*340 FILLER_0_15_161
*341 FILLER_0_15_167
*342 FILLER_0_15_169
*343 FILLER_0_15_181
*344 FILLER_0_15_193
*345 FILLER_0_15_205
*346 FILLER_0_15_217
*347 FILLER_0_15_223
*348 FILLER_0_15_225
*349 FILLER_0_15_237
*350 FILLER_0_15_249
*351 FILLER_0_15_261
*352 FILLER_0_15_27
*353 FILLER_0_15_273
*354 FILLER_0_15_279
*355 FILLER_0_15_281
*356 FILLER_0_15_293
*357 FILLER_0_15_3
*358 FILLER_0_15_305
*359 FILLER_0_15_317
*360 FILLER_0_15_329
*361 FILLER_0_15_335
*362 FILLER_0_15_337
*363 FILLER_0_15_349
*364 FILLER_0_15_39
*365 FILLER_0_15_51
*366 FILLER_0_15_55
*367 FILLER_0_15_57
*368 FILLER_0_15_69
*369 FILLER_0_15_81
*370 FILLER_0_15_93
*371 FILLER_0_16_109
*372 FILLER_0_16_121
*373 FILLER_0_16_133
*374 FILLER_0_16_139
*375 FILLER_0_16_141
*376 FILLER_0_16_15
*377 FILLER_0_16_153
*378 FILLER_0_16_165
*379 FILLER_0_16_177
*380 FILLER_0_16_189
*381 FILLER_0_16_195
*382 FILLER_0_16_197
*383 FILLER_0_16_209
*384 FILLER_0_16_221
*385 FILLER_0_16_233
*386 FILLER_0_16_245
*387 FILLER_0_16_251
*388 FILLER_0_16_253
*389 FILLER_0_16_265
*390 FILLER_0_16_27
*391 FILLER_0_16_277
*392 FILLER_0_16_289
*393 FILLER_0_16_29
*394 FILLER_0_16_3
*395 FILLER_0_16_301
*396 FILLER_0_16_307
*397 FILLER_0_16_309
*398 FILLER_0_16_321
*399 FILLER_0_16_333
*400 FILLER_0_16_345
*401 FILLER_0_16_41
*402 FILLER_0_16_53
*403 FILLER_0_16_65
*404 FILLER_0_16_77
*405 FILLER_0_16_83
*406 FILLER_0_16_85
*407 FILLER_0_16_97
*408 FILLER_0_17_105
*409 FILLER_0_17_111
*410 FILLER_0_17_113
*411 FILLER_0_17_125
*412 FILLER_0_17_137
*413 FILLER_0_17_149
*414 FILLER_0_17_15
*415 FILLER_0_17_161
*416 FILLER_0_17_167
*417 FILLER_0_17_169
*418 FILLER_0_17_181
*419 FILLER_0_17_193
*420 FILLER_0_17_205
*421 FILLER_0_17_217
*422 FILLER_0_17_223
*423 FILLER_0_17_225
*424 FILLER_0_17_237
*425 FILLER_0_17_249
*426 FILLER_0_17_261
*427 FILLER_0_17_27
*428 FILLER_0_17_273
*429 FILLER_0_17_279
*430 FILLER_0_17_281
*431 FILLER_0_17_293
*432 FILLER_0_17_3
*433 FILLER_0_17_305
*434 FILLER_0_17_317
*435 FILLER_0_17_329
*436 FILLER_0_17_335
*437 FILLER_0_17_337
*438 FILLER_0_17_349
*439 FILLER_0_17_39
*440 FILLER_0_17_51
*441 FILLER_0_17_55
*442 FILLER_0_17_57
*443 FILLER_0_17_69
*444 FILLER_0_17_81
*445 FILLER_0_17_93
*446 FILLER_0_18_109
*447 FILLER_0_18_121
*448 FILLER_0_18_133
*449 FILLER_0_18_139
*450 FILLER_0_18_141
*451 FILLER_0_18_15
*452 FILLER_0_18_153
*453 FILLER_0_18_165
*454 FILLER_0_18_177
*455 FILLER_0_18_189
*456 FILLER_0_18_195
*457 FILLER_0_18_197
*458 FILLER_0_18_209
*459 FILLER_0_18_221
*460 FILLER_0_18_233
*461 FILLER_0_18_245
*462 FILLER_0_18_251
*463 FILLER_0_18_253
*464 FILLER_0_18_265
*465 FILLER_0_18_27
*466 FILLER_0_18_277
*467 FILLER_0_18_289
*468 FILLER_0_18_29
*469 FILLER_0_18_3
*470 FILLER_0_18_301
*471 FILLER_0_18_307
*472 FILLER_0_18_309
*473 FILLER_0_18_321
*474 FILLER_0_18_333
*475 FILLER_0_18_345
*476 FILLER_0_18_41
*477 FILLER_0_18_53
*478 FILLER_0_18_65
*479 FILLER_0_18_77
*480 FILLER_0_18_83
*481 FILLER_0_18_85
*482 FILLER_0_18_97
*483 FILLER_0_19_105
*484 FILLER_0_19_111
*485 FILLER_0_19_113
*486 FILLER_0_19_125
*487 FILLER_0_19_137
*488 FILLER_0_19_149
*489 FILLER_0_19_15
*490 FILLER_0_19_161
*491 FILLER_0_19_167
*492 FILLER_0_19_169
*493 FILLER_0_19_181
*494 FILLER_0_19_193
*495 FILLER_0_19_205
*496 FILLER_0_19_217
*497 FILLER_0_19_223
*498 FILLER_0_19_225
*499 FILLER_0_19_237
*500 FILLER_0_19_249
*501 FILLER_0_19_261
*502 FILLER_0_19_27
*503 FILLER_0_19_273
*504 FILLER_0_19_279
*505 FILLER_0_19_281
*506 FILLER_0_19_293
*507 FILLER_0_19_3
*508 FILLER_0_19_305
*509 FILLER_0_19_317
*510 FILLER_0_19_329
*511 FILLER_0_19_335
*512 FILLER_0_19_337
*513 FILLER_0_19_349
*514 FILLER_0_19_39
*515 FILLER_0_19_51
*516 FILLER_0_19_55
*517 FILLER_0_19_57
*518 FILLER_0_19_69
*519 FILLER_0_19_81
*520 FILLER_0_19_93
*521 FILLER_0_1_105
*522 FILLER_0_1_111
*523 FILLER_0_1_113
*524 FILLER_0_1_125
*525 FILLER_0_1_137
*526 FILLER_0_1_149
*527 FILLER_0_1_15
*528 FILLER_0_1_161
*529 FILLER_0_1_167
*530 FILLER_0_1_169
*531 FILLER_0_1_181
*532 FILLER_0_1_193
*533 FILLER_0_1_205
*534 FILLER_0_1_217
*535 FILLER_0_1_223
*536 FILLER_0_1_225
*537 FILLER_0_1_237
*538 FILLER_0_1_249
*539 FILLER_0_1_261
*540 FILLER_0_1_27
*541 FILLER_0_1_273
*542 FILLER_0_1_279
*543 FILLER_0_1_281
*544 FILLER_0_1_293
*545 FILLER_0_1_3
*546 FILLER_0_1_305
*547 FILLER_0_1_317
*548 FILLER_0_1_329
*549 FILLER_0_1_335
*550 FILLER_0_1_337
*551 FILLER_0_1_349
*552 FILLER_0_1_39
*553 FILLER_0_1_51
*554 FILLER_0_1_55
*555 FILLER_0_1_57
*556 FILLER_0_1_69
*557 FILLER_0_1_81
*558 FILLER_0_1_93
*559 FILLER_0_20_109
*560 FILLER_0_20_121
*561 FILLER_0_20_133
*562 FILLER_0_20_139
*563 FILLER_0_20_141
*564 FILLER_0_20_15
*565 FILLER_0_20_153
*566 FILLER_0_20_165
*567 FILLER_0_20_177
*568 FILLER_0_20_189
*569 FILLER_0_20_195
*570 FILLER_0_20_197
*571 FILLER_0_20_209
*572 FILLER_0_20_221
*573 FILLER_0_20_233
*574 FILLER_0_20_245
*575 FILLER_0_20_251
*576 FILLER_0_20_253
*577 FILLER_0_20_265
*578 FILLER_0_20_27
*579 FILLER_0_20_277
*580 FILLER_0_20_289
*581 FILLER_0_20_29
*582 FILLER_0_20_3
*583 FILLER_0_20_301
*584 FILLER_0_20_307
*585 FILLER_0_20_309
*586 FILLER_0_20_321
*587 FILLER_0_20_333
*588 FILLER_0_20_345
*589 FILLER_0_20_41
*590 FILLER_0_20_53
*591 FILLER_0_20_65
*592 FILLER_0_20_77
*593 FILLER_0_20_83
*594 FILLER_0_20_85
*595 FILLER_0_20_97
*596 FILLER_0_21_105
*597 FILLER_0_21_111
*598 FILLER_0_21_113
*599 FILLER_0_21_125
*600 FILLER_0_21_137
*601 FILLER_0_21_149
*602 FILLER_0_21_15
*603 FILLER_0_21_161
*604 FILLER_0_21_167
*605 FILLER_0_21_169
*606 FILLER_0_21_181
*607 FILLER_0_21_193
*608 FILLER_0_21_205
*609 FILLER_0_21_217
*610 FILLER_0_21_223
*611 FILLER_0_21_225
*612 FILLER_0_21_237
*613 FILLER_0_21_249
*614 FILLER_0_21_261
*615 FILLER_0_21_27
*616 FILLER_0_21_273
*617 FILLER_0_21_279
*618 FILLER_0_21_281
*619 FILLER_0_21_293
*620 FILLER_0_21_3
*621 FILLER_0_21_305
*622 FILLER_0_21_317
*623 FILLER_0_21_329
*624 FILLER_0_21_335
*625 FILLER_0_21_337
*626 FILLER_0_21_349
*627 FILLER_0_21_39
*628 FILLER_0_21_51
*629 FILLER_0_21_55
*630 FILLER_0_21_57
*631 FILLER_0_21_69
*632 FILLER_0_21_81
*633 FILLER_0_21_93
*634 FILLER_0_22_109
*635 FILLER_0_22_121
*636 FILLER_0_22_133
*637 FILLER_0_22_139
*638 FILLER_0_22_141
*639 FILLER_0_22_15
*640 FILLER_0_22_153
*641 FILLER_0_22_165
*642 FILLER_0_22_177
*643 FILLER_0_22_189
*644 FILLER_0_22_195
*645 FILLER_0_22_197
*646 FILLER_0_22_209
*647 FILLER_0_22_221
*648 FILLER_0_22_233
*649 FILLER_0_22_245
*650 FILLER_0_22_251
*651 FILLER_0_22_253
*652 FILLER_0_22_265
*653 FILLER_0_22_27
*654 FILLER_0_22_277
*655 FILLER_0_22_289
*656 FILLER_0_22_29
*657 FILLER_0_22_3
*658 FILLER_0_22_301
*659 FILLER_0_22_307
*660 FILLER_0_22_309
*661 FILLER_0_22_321
*662 FILLER_0_22_333
*663 FILLER_0_22_345
*664 FILLER_0_22_41
*665 FILLER_0_22_53
*666 FILLER_0_22_65
*667 FILLER_0_22_77
*668 FILLER_0_22_83
*669 FILLER_0_22_85
*670 FILLER_0_22_97
*671 FILLER_0_23_105
*672 FILLER_0_23_111
*673 FILLER_0_23_113
*674 FILLER_0_23_125
*675 FILLER_0_23_137
*676 FILLER_0_23_149
*677 FILLER_0_23_15
*678 FILLER_0_23_161
*679 FILLER_0_23_167
*680 FILLER_0_23_169
*681 FILLER_0_23_181
*682 FILLER_0_23_193
*683 FILLER_0_23_205
*684 FILLER_0_23_217
*685 FILLER_0_23_223
*686 FILLER_0_23_225
*687 FILLER_0_23_237
*688 FILLER_0_23_249
*689 FILLER_0_23_261
*690 FILLER_0_23_27
*691 FILLER_0_23_273
*692 FILLER_0_23_279
*693 FILLER_0_23_281
*694 FILLER_0_23_293
*695 FILLER_0_23_3
*696 FILLER_0_23_305
*697 FILLER_0_23_317
*698 FILLER_0_23_329
*699 FILLER_0_23_335
*700 FILLER_0_23_337
*701 FILLER_0_23_349
*702 FILLER_0_23_39
*703 FILLER_0_23_51
*704 FILLER_0_23_55
*705 FILLER_0_23_57
*706 FILLER_0_23_69
*707 FILLER_0_23_81
*708 FILLER_0_23_93
*709 FILLER_0_24_109
*710 FILLER_0_24_121
*711 FILLER_0_24_133
*712 FILLER_0_24_139
*713 FILLER_0_24_141
*714 FILLER_0_24_15
*715 FILLER_0_24_153
*716 FILLER_0_24_165
*717 FILLER_0_24_177
*718 FILLER_0_24_189
*719 FILLER_0_24_195
*720 FILLER_0_24_197
*721 FILLER_0_24_209
*722 FILLER_0_24_221
*723 FILLER_0_24_233
*724 FILLER_0_24_245
*725 FILLER_0_24_251
*726 FILLER_0_24_253
*727 FILLER_0_24_265
*728 FILLER_0_24_27
*729 FILLER_0_24_277
*730 FILLER_0_24_289
*731 FILLER_0_24_29
*732 FILLER_0_24_3
*733 FILLER_0_24_301
*734 FILLER_0_24_307
*735 FILLER_0_24_309
*736 FILLER_0_24_321
*737 FILLER_0_24_333
*738 FILLER_0_24_345
*739 FILLER_0_24_41
*740 FILLER_0_24_53
*741 FILLER_0_24_65
*742 FILLER_0_24_77
*743 FILLER_0_24_83
*744 FILLER_0_24_85
*745 FILLER_0_24_97
*746 FILLER_0_25_105
*747 FILLER_0_25_111
*748 FILLER_0_25_113
*749 FILLER_0_25_125
*750 FILLER_0_25_137
*751 FILLER_0_25_149
*752 FILLER_0_25_15
*753 FILLER_0_25_161
*754 FILLER_0_25_167
*755 FILLER_0_25_169
*756 FILLER_0_25_181
*757 FILLER_0_25_193
*758 FILLER_0_25_205
*759 FILLER_0_25_217
*760 FILLER_0_25_223
*761 FILLER_0_25_225
*762 FILLER_0_25_237
*763 FILLER_0_25_249
*764 FILLER_0_25_261
*765 FILLER_0_25_27
*766 FILLER_0_25_273
*767 FILLER_0_25_279
*768 FILLER_0_25_281
*769 FILLER_0_25_293
*770 FILLER_0_25_3
*771 FILLER_0_25_305
*772 FILLER_0_25_317
*773 FILLER_0_25_329
*774 FILLER_0_25_335
*775 FILLER_0_25_337
*776 FILLER_0_25_349
*777 FILLER_0_25_39
*778 FILLER_0_25_51
*779 FILLER_0_25_55
*780 FILLER_0_25_57
*781 FILLER_0_25_69
*782 FILLER_0_25_81
*783 FILLER_0_25_93
*784 FILLER_0_26_109
*785 FILLER_0_26_121
*786 FILLER_0_26_133
*787 FILLER_0_26_139
*788 FILLER_0_26_141
*789 FILLER_0_26_15
*790 FILLER_0_26_153
*791 FILLER_0_26_165
*792 FILLER_0_26_177
*793 FILLER_0_26_189
*794 FILLER_0_26_195
*795 FILLER_0_26_197
*796 FILLER_0_26_209
*797 FILLER_0_26_221
*798 FILLER_0_26_233
*799 FILLER_0_26_245
*800 FILLER_0_26_251
*801 FILLER_0_26_253
*802 FILLER_0_26_265
*803 FILLER_0_26_27
*804 FILLER_0_26_277
*805 FILLER_0_26_289
*806 FILLER_0_26_29
*807 FILLER_0_26_3
*808 FILLER_0_26_301
*809 FILLER_0_26_307
*810 FILLER_0_26_309
*811 FILLER_0_26_321
*812 FILLER_0_26_333
*813 FILLER_0_26_345
*814 FILLER_0_26_41
*815 FILLER_0_26_53
*816 FILLER_0_26_65
*817 FILLER_0_26_77
*818 FILLER_0_26_83
*819 FILLER_0_26_85
*820 FILLER_0_26_97
*821 FILLER_0_27_105
*822 FILLER_0_27_111
*823 FILLER_0_27_113
*824 FILLER_0_27_125
*825 FILLER_0_27_137
*826 FILLER_0_27_149
*827 FILLER_0_27_15
*828 FILLER_0_27_161
*829 FILLER_0_27_167
*830 FILLER_0_27_169
*831 FILLER_0_27_181
*832 FILLER_0_27_193
*833 FILLER_0_27_205
*834 FILLER_0_27_217
*835 FILLER_0_27_223
*836 FILLER_0_27_225
*837 FILLER_0_27_237
*838 FILLER_0_27_249
*839 FILLER_0_27_261
*840 FILLER_0_27_27
*841 FILLER_0_27_273
*842 FILLER_0_27_279
*843 FILLER_0_27_281
*844 FILLER_0_27_293
*845 FILLER_0_27_3
*846 FILLER_0_27_305
*847 FILLER_0_27_317
*848 FILLER_0_27_329
*849 FILLER_0_27_335
*850 FILLER_0_27_337
*851 FILLER_0_27_349
*852 FILLER_0_27_39
*853 FILLER_0_27_51
*854 FILLER_0_27_55
*855 FILLER_0_27_57
*856 FILLER_0_27_69
*857 FILLER_0_27_81
*858 FILLER_0_27_93
*859 FILLER_0_28_109
*860 FILLER_0_28_121
*861 FILLER_0_28_133
*862 FILLER_0_28_139
*863 FILLER_0_28_141
*864 FILLER_0_28_15
*865 FILLER_0_28_153
*866 FILLER_0_28_165
*867 FILLER_0_28_177
*868 FILLER_0_28_189
*869 FILLER_0_28_195
*870 FILLER_0_28_197
*871 FILLER_0_28_209
*872 FILLER_0_28_221
*873 FILLER_0_28_233
*874 FILLER_0_28_245
*875 FILLER_0_28_251
*876 FILLER_0_28_253
*877 FILLER_0_28_265
*878 FILLER_0_28_27
*879 FILLER_0_28_277
*880 FILLER_0_28_289
*881 FILLER_0_28_29
*882 FILLER_0_28_3
*883 FILLER_0_28_301
*884 FILLER_0_28_307
*885 FILLER_0_28_309
*886 FILLER_0_28_321
*887 FILLER_0_28_333
*888 FILLER_0_28_345
*889 FILLER_0_28_41
*890 FILLER_0_28_53
*891 FILLER_0_28_65
*892 FILLER_0_28_77
*893 FILLER_0_28_83
*894 FILLER_0_28_85
*895 FILLER_0_28_97
*896 FILLER_0_29_105
*897 FILLER_0_29_111
*898 FILLER_0_29_113
*899 FILLER_0_29_125
*900 FILLER_0_29_137
*901 FILLER_0_29_149
*902 FILLER_0_29_15
*903 FILLER_0_29_161
*904 FILLER_0_29_167
*905 FILLER_0_29_169
*906 FILLER_0_29_181
*907 FILLER_0_29_193
*908 FILLER_0_29_205
*909 FILLER_0_29_217
*910 FILLER_0_29_223
*911 FILLER_0_29_225
*912 FILLER_0_29_237
*913 FILLER_0_29_249
*914 FILLER_0_29_261
*915 FILLER_0_29_27
*916 FILLER_0_29_273
*917 FILLER_0_29_279
*918 FILLER_0_29_281
*919 FILLER_0_29_293
*920 FILLER_0_29_3
*921 FILLER_0_29_305
*922 FILLER_0_29_317
*923 FILLER_0_29_329
*924 FILLER_0_29_335
*925 FILLER_0_29_337
*926 FILLER_0_29_349
*927 FILLER_0_29_39
*928 FILLER_0_29_51
*929 FILLER_0_29_55
*930 FILLER_0_29_57
*931 FILLER_0_29_69
*932 FILLER_0_29_81
*933 FILLER_0_29_93
*934 FILLER_0_2_109
*935 FILLER_0_2_121
*936 FILLER_0_2_133
*937 FILLER_0_2_139
*938 FILLER_0_2_141
*939 FILLER_0_2_15
*940 FILLER_0_2_153
*941 FILLER_0_2_165
*942 FILLER_0_2_177
*943 FILLER_0_2_189
*944 FILLER_0_2_195
*945 FILLER_0_2_197
*946 FILLER_0_2_209
*947 FILLER_0_2_221
*948 FILLER_0_2_233
*949 FILLER_0_2_245
*950 FILLER_0_2_251
*951 FILLER_0_2_253
*952 FILLER_0_2_265
*953 FILLER_0_2_27
*954 FILLER_0_2_277
*955 FILLER_0_2_289
*956 FILLER_0_2_29
*957 FILLER_0_2_3
*958 FILLER_0_2_301
*959 FILLER_0_2_307
*960 FILLER_0_2_309
*961 FILLER_0_2_321
*962 FILLER_0_2_333
*963 FILLER_0_2_345
*964 FILLER_0_2_41
*965 FILLER_0_2_53
*966 FILLER_0_2_65
*967 FILLER_0_2_77
*968 FILLER_0_2_83
*969 FILLER_0_2_85
*970 FILLER_0_2_97
*971 FILLER_0_30_109
*972 FILLER_0_30_121
*973 FILLER_0_30_133
*974 FILLER_0_30_139
*975 FILLER_0_30_141
*976 FILLER_0_30_15
*977 FILLER_0_30_153
*978 FILLER_0_30_165
*979 FILLER_0_30_177
*980 FILLER_0_30_189
*981 FILLER_0_30_195
*982 FILLER_0_30_197
*983 FILLER_0_30_209
*984 FILLER_0_30_221
*985 FILLER_0_30_233
*986 FILLER_0_30_245
*987 FILLER_0_30_251
*988 FILLER_0_30_253
*989 FILLER_0_30_265
*990 FILLER_0_30_27
*991 FILLER_0_30_277
*992 FILLER_0_30_289
*993 FILLER_0_30_29
*994 FILLER_0_30_3
*995 FILLER_0_30_301
*996 FILLER_0_30_307
*997 FILLER_0_30_309
*998 FILLER_0_30_321
*999 FILLER_0_30_333
*1000 FILLER_0_30_345
*1001 FILLER_0_30_41
*1002 FILLER_0_30_53
*1003 FILLER_0_30_65
*1004 FILLER_0_30_77
*1005 FILLER_0_30_83
*1006 FILLER_0_30_85
*1007 FILLER_0_30_97
*1008 FILLER_0_31_105
*1009 FILLER_0_31_111
*1010 FILLER_0_31_113
*1011 FILLER_0_31_125
*1012 FILLER_0_31_137
*1013 FILLER_0_31_149
*1014 FILLER_0_31_15
*1015 FILLER_0_31_161
*1016 FILLER_0_31_167
*1017 FILLER_0_31_169
*1018 FILLER_0_31_181
*1019 FILLER_0_31_193
*1020 FILLER_0_31_205
*1021 FILLER_0_31_217
*1022 FILLER_0_31_223
*1023 FILLER_0_31_225
*1024 FILLER_0_31_237
*1025 FILLER_0_31_249
*1026 FILLER_0_31_261
*1027 FILLER_0_31_27
*1028 FILLER_0_31_273
*1029 FILLER_0_31_279
*1030 FILLER_0_31_281
*1031 FILLER_0_31_293
*1032 FILLER_0_31_3
*1033 FILLER_0_31_305
*1034 FILLER_0_31_317
*1035 FILLER_0_31_329
*1036 FILLER_0_31_335
*1037 FILLER_0_31_337
*1038 FILLER_0_31_349
*1039 FILLER_0_31_39
*1040 FILLER_0_31_51
*1041 FILLER_0_31_55
*1042 FILLER_0_31_57
*1043 FILLER_0_31_69
*1044 FILLER_0_31_81
*1045 FILLER_0_31_93
*1046 FILLER_0_32_109
*1047 FILLER_0_32_121
*1048 FILLER_0_32_133
*1049 FILLER_0_32_139
*1050 FILLER_0_32_141
*1051 FILLER_0_32_15
*1052 FILLER_0_32_153
*1053 FILLER_0_32_165
*1054 FILLER_0_32_177
*1055 FILLER_0_32_189
*1056 FILLER_0_32_195
*1057 FILLER_0_32_197
*1058 FILLER_0_32_209
*1059 FILLER_0_32_221
*1060 FILLER_0_32_233
*1061 FILLER_0_32_245
*1062 FILLER_0_32_251
*1063 FILLER_0_32_253
*1064 FILLER_0_32_261
*1065 FILLER_0_32_266
*1066 FILLER_0_32_27
*1067 FILLER_0_32_274
*1068 FILLER_0_32_284
*1069 FILLER_0_32_29
*1070 FILLER_0_32_290
*1071 FILLER_0_32_295
*1072 FILLER_0_32_3
*1073 FILLER_0_32_307
*1074 FILLER_0_32_309
*1075 FILLER_0_32_321
*1076 FILLER_0_32_333
*1077 FILLER_0_32_345
*1078 FILLER_0_32_41
*1079 FILLER_0_32_53
*1080 FILLER_0_32_65
*1081 FILLER_0_32_77
*1082 FILLER_0_32_83
*1083 FILLER_0_32_85
*1084 FILLER_0_32_97
*1085 FILLER_0_33_105
*1086 FILLER_0_33_111
*1087 FILLER_0_33_113
*1088 FILLER_0_33_125
*1089 FILLER_0_33_137
*1090 FILLER_0_33_149
*1091 FILLER_0_33_15
*1092 FILLER_0_33_161
*1093 FILLER_0_33_167
*1094 FILLER_0_33_169
*1095 FILLER_0_33_181
*1096 FILLER_0_33_193
*1097 FILLER_0_33_205
*1098 FILLER_0_33_217
*1099 FILLER_0_33_223
*1100 FILLER_0_33_225
*1101 FILLER_0_33_237
*1102 FILLER_0_33_262
*1103 FILLER_0_33_27
*1104 FILLER_0_33_278
*1105 FILLER_0_33_288
*1106 FILLER_0_33_3
*1107 FILLER_0_33_306
*1108 FILLER_0_33_318
*1109 FILLER_0_33_330
*1110 FILLER_0_33_337
*1111 FILLER_0_33_349
*1112 FILLER_0_33_39
*1113 FILLER_0_33_51
*1114 FILLER_0_33_55
*1115 FILLER_0_33_57
*1116 FILLER_0_33_69
*1117 FILLER_0_33_81
*1118 FILLER_0_33_93
*1119 FILLER_0_34_109
*1120 FILLER_0_34_121
*1121 FILLER_0_34_133
*1122 FILLER_0_34_139
*1123 FILLER_0_34_141
*1124 FILLER_0_34_15
*1125 FILLER_0_34_153
*1126 FILLER_0_34_165
*1127 FILLER_0_34_177
*1128 FILLER_0_34_189
*1129 FILLER_0_34_195
*1130 FILLER_0_34_197
*1131 FILLER_0_34_237
*1132 FILLER_0_34_249
*1133 FILLER_0_34_253
*1134 FILLER_0_34_259
*1135 FILLER_0_34_27
*1136 FILLER_0_34_280
*1137 FILLER_0_34_29
*1138 FILLER_0_34_3
*1139 FILLER_0_34_309
*1140 FILLER_0_34_321
*1141 FILLER_0_34_333
*1142 FILLER_0_34_345
*1143 FILLER_0_34_41
*1144 FILLER_0_34_53
*1145 FILLER_0_34_65
*1146 FILLER_0_34_77
*1147 FILLER_0_34_83
*1148 FILLER_0_34_85
*1149 FILLER_0_34_97
*1150 FILLER_0_35_105
*1151 FILLER_0_35_111
*1152 FILLER_0_35_113
*1153 FILLER_0_35_125
*1154 FILLER_0_35_137
*1155 FILLER_0_35_149
*1156 FILLER_0_35_15
*1157 FILLER_0_35_161
*1158 FILLER_0_35_167
*1159 FILLER_0_35_169
*1160 FILLER_0_35_181
*1161 FILLER_0_35_193
*1162 FILLER_0_35_225
*1163 FILLER_0_35_252
*1164 FILLER_0_35_27
*1165 FILLER_0_35_297
*1166 FILLER_0_35_3
*1167 FILLER_0_35_315
*1168 FILLER_0_35_327
*1169 FILLER_0_35_335
*1170 FILLER_0_35_337
*1171 FILLER_0_35_349
*1172 FILLER_0_35_39
*1173 FILLER_0_35_51
*1174 FILLER_0_35_55
*1175 FILLER_0_35_57
*1176 FILLER_0_35_69
*1177 FILLER_0_35_81
*1178 FILLER_0_35_93
*1179 FILLER_0_36_109
*1180 FILLER_0_36_121
*1181 FILLER_0_36_133
*1182 FILLER_0_36_139
*1183 FILLER_0_36_141
*1184 FILLER_0_36_15
*1185 FILLER_0_36_153
*1186 FILLER_0_36_165
*1187 FILLER_0_36_177
*1188 FILLER_0_36_189
*1189 FILLER_0_36_195
*1190 FILLER_0_36_197
*1191 FILLER_0_36_209
*1192 FILLER_0_36_217
*1193 FILLER_0_36_250
*1194 FILLER_0_36_27
*1195 FILLER_0_36_276
*1196 FILLER_0_36_284
*1197 FILLER_0_36_29
*1198 FILLER_0_36_298
*1199 FILLER_0_36_3
*1200 FILLER_0_36_306
*1201 FILLER_0_36_321
*1202 FILLER_0_36_333
*1203 FILLER_0_36_345
*1204 FILLER_0_36_41
*1205 FILLER_0_36_53
*1206 FILLER_0_36_65
*1207 FILLER_0_36_77
*1208 FILLER_0_36_83
*1209 FILLER_0_36_85
*1210 FILLER_0_36_97
*1211 FILLER_0_37_105
*1212 FILLER_0_37_111
*1213 FILLER_0_37_113
*1214 FILLER_0_37_125
*1215 FILLER_0_37_137
*1216 FILLER_0_37_149
*1217 FILLER_0_37_15
*1218 FILLER_0_37_161
*1219 FILLER_0_37_167
*1220 FILLER_0_37_169
*1221 FILLER_0_37_181
*1222 FILLER_0_37_193
*1223 FILLER_0_37_201
*1224 FILLER_0_37_218
*1225 FILLER_0_37_223
*1226 FILLER_0_37_225
*1227 FILLER_0_37_235
*1228 FILLER_0_37_27
*1229 FILLER_0_37_274
*1230 FILLER_0_37_278
*1231 FILLER_0_37_3
*1232 FILLER_0_37_324
*1233 FILLER_0_37_337
*1234 FILLER_0_37_349
*1235 FILLER_0_37_39
*1236 FILLER_0_37_51
*1237 FILLER_0_37_55
*1238 FILLER_0_37_57
*1239 FILLER_0_37_69
*1240 FILLER_0_37_81
*1241 FILLER_0_37_93
*1242 FILLER_0_38_104
*1243 FILLER_0_38_110
*1244 FILLER_0_38_116
*1245 FILLER_0_38_122
*1246 FILLER_0_38_128
*1247 FILLER_0_38_134
*1248 FILLER_0_38_141
*1249 FILLER_0_38_146
*1250 FILLER_0_38_15
*1251 FILLER_0_38_152
*1252 FILLER_0_38_158
*1253 FILLER_0_38_164
*1254 FILLER_0_38_172
*1255 FILLER_0_38_176
*1256 FILLER_0_38_182
*1257 FILLER_0_38_188
*1258 FILLER_0_38_194
*1259 FILLER_0_38_200
*1260 FILLER_0_38_208
*1261 FILLER_0_38_220
*1262 FILLER_0_38_27
*1263 FILLER_0_38_273
*1264 FILLER_0_38_279
*1265 FILLER_0_38_281
*1266 FILLER_0_38_289
*1267 FILLER_0_38_29
*1268 FILLER_0_38_296
*1269 FILLER_0_38_3
*1270 FILLER_0_38_304
*1271 FILLER_0_38_309
*1272 FILLER_0_38_319
*1273 FILLER_0_38_331
*1274 FILLER_0_38_335
*1275 FILLER_0_38_337
*1276 FILLER_0_38_349
*1277 FILLER_0_38_41
*1278 FILLER_0_38_53
*1279 FILLER_0_38_57
*1280 FILLER_0_38_68
*1281 FILLER_0_38_74
*1282 FILLER_0_38_80
*1283 FILLER_0_38_88
*1284 FILLER_0_38_92
*1285 FILLER_0_38_98
*1286 FILLER_0_3_105
*1287 FILLER_0_3_111
*1288 FILLER_0_3_113
*1289 FILLER_0_3_125
*1290 FILLER_0_3_137
*1291 FILLER_0_3_149
*1292 FILLER_0_3_15
*1293 FILLER_0_3_161
*1294 FILLER_0_3_167
*1295 FILLER_0_3_169
*1296 FILLER_0_3_181
*1297 FILLER_0_3_193
*1298 FILLER_0_3_205
*1299 FILLER_0_3_217
*1300 FILLER_0_3_223
*1301 FILLER_0_3_225
*1302 FILLER_0_3_237
*1303 FILLER_0_3_249
*1304 FILLER_0_3_261
*1305 FILLER_0_3_27
*1306 FILLER_0_3_273
*1307 FILLER_0_3_279
*1308 FILLER_0_3_281
*1309 FILLER_0_3_293
*1310 FILLER_0_3_3
*1311 FILLER_0_3_305
*1312 FILLER_0_3_317
*1313 FILLER_0_3_329
*1314 FILLER_0_3_335
*1315 FILLER_0_3_337
*1316 FILLER_0_3_349
*1317 FILLER_0_3_39
*1318 FILLER_0_3_51
*1319 FILLER_0_3_55
*1320 FILLER_0_3_57
*1321 FILLER_0_3_69
*1322 FILLER_0_3_81
*1323 FILLER_0_3_93
*1324 FILLER_0_4_109
*1325 FILLER_0_4_121
*1326 FILLER_0_4_133
*1327 FILLER_0_4_139
*1328 FILLER_0_4_141
*1329 FILLER_0_4_15
*1330 FILLER_0_4_153
*1331 FILLER_0_4_165
*1332 FILLER_0_4_177
*1333 FILLER_0_4_189
*1334 FILLER_0_4_195
*1335 FILLER_0_4_197
*1336 FILLER_0_4_209
*1337 FILLER_0_4_221
*1338 FILLER_0_4_233
*1339 FILLER_0_4_245
*1340 FILLER_0_4_251
*1341 FILLER_0_4_253
*1342 FILLER_0_4_265
*1343 FILLER_0_4_27
*1344 FILLER_0_4_277
*1345 FILLER_0_4_289
*1346 FILLER_0_4_29
*1347 FILLER_0_4_3
*1348 FILLER_0_4_301
*1349 FILLER_0_4_307
*1350 FILLER_0_4_309
*1351 FILLER_0_4_321
*1352 FILLER_0_4_333
*1353 FILLER_0_4_345
*1354 FILLER_0_4_41
*1355 FILLER_0_4_53
*1356 FILLER_0_4_65
*1357 FILLER_0_4_77
*1358 FILLER_0_4_83
*1359 FILLER_0_4_85
*1360 FILLER_0_4_97
*1361 FILLER_0_5_105
*1362 FILLER_0_5_111
*1363 FILLER_0_5_113
*1364 FILLER_0_5_125
*1365 FILLER_0_5_137
*1366 FILLER_0_5_149
*1367 FILLER_0_5_15
*1368 FILLER_0_5_161
*1369 FILLER_0_5_167
*1370 FILLER_0_5_169
*1371 FILLER_0_5_181
*1372 FILLER_0_5_193
*1373 FILLER_0_5_205
*1374 FILLER_0_5_217
*1375 FILLER_0_5_223
*1376 FILLER_0_5_225
*1377 FILLER_0_5_237
*1378 FILLER_0_5_249
*1379 FILLER_0_5_261
*1380 FILLER_0_5_27
*1381 FILLER_0_5_273
*1382 FILLER_0_5_279
*1383 FILLER_0_5_281
*1384 FILLER_0_5_293
*1385 FILLER_0_5_3
*1386 FILLER_0_5_305
*1387 FILLER_0_5_317
*1388 FILLER_0_5_329
*1389 FILLER_0_5_335
*1390 FILLER_0_5_337
*1391 FILLER_0_5_349
*1392 FILLER_0_5_39
*1393 FILLER_0_5_51
*1394 FILLER_0_5_55
*1395 FILLER_0_5_57
*1396 FILLER_0_5_69
*1397 FILLER_0_5_81
*1398 FILLER_0_5_93
*1399 FILLER_0_6_109
*1400 FILLER_0_6_121
*1401 FILLER_0_6_133
*1402 FILLER_0_6_139
*1403 FILLER_0_6_141
*1404 FILLER_0_6_15
*1405 FILLER_0_6_153
*1406 FILLER_0_6_165
*1407 FILLER_0_6_177
*1408 FILLER_0_6_189
*1409 FILLER_0_6_195
*1410 FILLER_0_6_197
*1411 FILLER_0_6_209
*1412 FILLER_0_6_221
*1413 FILLER_0_6_233
*1414 FILLER_0_6_245
*1415 FILLER_0_6_251
*1416 FILLER_0_6_253
*1417 FILLER_0_6_265
*1418 FILLER_0_6_27
*1419 FILLER_0_6_277
*1420 FILLER_0_6_289
*1421 FILLER_0_6_29
*1422 FILLER_0_6_3
*1423 FILLER_0_6_301
*1424 FILLER_0_6_307
*1425 FILLER_0_6_309
*1426 FILLER_0_6_321
*1427 FILLER_0_6_333
*1428 FILLER_0_6_345
*1429 FILLER_0_6_41
*1430 FILLER_0_6_53
*1431 FILLER_0_6_65
*1432 FILLER_0_6_77
*1433 FILLER_0_6_83
*1434 FILLER_0_6_85
*1435 FILLER_0_6_97
*1436 FILLER_0_7_105
*1437 FILLER_0_7_111
*1438 FILLER_0_7_113
*1439 FILLER_0_7_125
*1440 FILLER_0_7_137
*1441 FILLER_0_7_149
*1442 FILLER_0_7_15
*1443 FILLER_0_7_161
*1444 FILLER_0_7_167
*1445 FILLER_0_7_169
*1446 FILLER_0_7_181
*1447 FILLER_0_7_193
*1448 FILLER_0_7_205
*1449 FILLER_0_7_217
*1450 FILLER_0_7_223
*1451 FILLER_0_7_225
*1452 FILLER_0_7_237
*1453 FILLER_0_7_249
*1454 FILLER_0_7_261
*1455 FILLER_0_7_27
*1456 FILLER_0_7_273
*1457 FILLER_0_7_279
*1458 FILLER_0_7_281
*1459 FILLER_0_7_293
*1460 FILLER_0_7_3
*1461 FILLER_0_7_305
*1462 FILLER_0_7_317
*1463 FILLER_0_7_329
*1464 FILLER_0_7_335
*1465 FILLER_0_7_337
*1466 FILLER_0_7_349
*1467 FILLER_0_7_39
*1468 FILLER_0_7_51
*1469 FILLER_0_7_55