*SPEF "ieee 1481-1999"
*DESIGN "tt_um_mihailocode_neural_network"
*DATE "11:11:11 Fri 11 11, 1111"
*VENDOR "OpenRCX"
*PROGRAM "Parallel Extraction"
*VERSION "1.0"
*DESIGN_FLOW "NAME_SCOPE LOCAL" "PIN_CAP NONE"
*DIVIDER /
*DELIMITER :
*BUS_DELIMITER []
*T_UNIT 1 NS
*C_UNIT 1 PF
*R_UNIT 1 OHM
*L_UNIT 1 HENRY

*NAME_MAP
*3 clk
*4 ena
*5 rst_n
*6 ui_in[0]
*7 ui_in[1]
*8 ui_in[2]
*9 ui_in[3]
*10 ui_in[4]
*11 ui_in[5]
*12 ui_in[6]
*13 ui_in[7]
*14 uio_in[0]
*15 uio_in[1]
*16 uio_in[2]
*17 uio_in[3]
*18 uio_in[4]
*19 uio_in[5]
*20 uio_in[6]
*21 uio_in[7]
*22 net9
*23 net10
*24 net11
*25 net12
*26 net13
*27 net14
*28 net15
*29 net16
*30 net17
*31 net18
*32 net19
*33 net20
*34 net21
*35 net22
*36 net23
*37 net24
*38 uo_out[0]
*39 uo_out[1]
*40 uo_out[2]
*41 uo_out[3]
*42 uo_out[4]
*43 uo_out[5]
*44 uo_out[6]
*45 uo_out[7]
*46 _000_
*47 _001_
*48 _002_
*49 _003_
*50 _004_
*51 _005_
*52 _006_
*53 _007_
*54 _008_
*55 _009_
*56 _010_
*57 _011_
*58 _012_
*59 _013_
*60 _014_
*61 _015_
*62 _016_
*63 _017_
*64 _018_
*65 _019_
*66 _020_
*67 _021_
*68 _022_
*69 _023_
*70 _024_
*71 _025_
*72 _026_
*73 _027_
*74 _028_
*75 _029_
*76 _030_
*77 _032_
*78 _033_
*79 _034_
*80 _035_
*81 _037_
*82 _038_
*83 _039_
*84 _040_
*85 _041_
*86 _042_
*87 _043_
*88 _044_
*89 _045_
*90 _046_
*91 _047_
*92 _048_
*93 _049_
*94 _050_
*95 _051_
*96 _052_
*97 _053_
*98 _054_
*99 _055_
*100 _056_
*101 _057_
*102 _058_
*103 _059_
*104 _060_
*105 _061_
*106 _062_
*107 _063_
*108 _064_
*109 _065_
*110 _066_
*111 _067_
*112 _068_
*113 _069_
*114 _070_
*115 _071_
*116 _072_
*117 _073_
*118 _074_
*119 _075_
*120 _076_
*121 _077_
*122 _078_
*123 _079_
*124 _080_
*125 _081_
*126 _082_
*127 _083_
*128 _084_
*129 _085_
*130 _086_
*131 _087_
*132 _088_
*133 _089_
*134 _090_
*135 _091_
*136 _092_
*137 _093_
*138 _094_
*139 _095_
*140 _096_
*141 _097_
*142 _098_
*143 _099_
*144 _100_
*145 _101_
*146 _102_
*147 _103_
*148 _104_
*149 _105_
*150 _106_
*151 _107_
*152 _108_
*153 _109_
*154 _110_
*155 _111_
*156 _112_
*157 _113_
*158 _114_
*159 _115_
*160 _116_
*161 _117_
*162 _118_
*163 _119_
*164 _120_
*165 _121_
*166 _122_
*167 _123_
*168 _124_
*169 _125_
*170 _126_
*171 _127_
*172 _128_
*173 _129_
*174 _130_
*175 _131_
*176 _132_
*177 _133_
*178 _134_
*179 _135_
*180 _136_
*181 _137_
*182 _138_
*183 _139_
*184 _140_
*185 _141_
*186 _142_
*187 _143_
*188 _144_
*189 _145_
*190 _146_
*191 _147_
*192 _148_
*193 _149_
*194 _150_
*195 _151_
*196 _152_
*197 _153_
*198 _154_
*199 _155_
*200 _156_
*201 _157_
*202 _158_
*203 _159_
*204 _160_
*205 _161_
*206 _162_
*207 _163_
*208 _164_
*209 _165_
*210 _166_
*211 _167_
*212 _168_
*213 _169_
*214 _170_
*215 _171_
*216 _172_
*217 _173_
*218 _174_
*219 _175_
*220 _176_
*221 _177_
*222 _178_
*223 _179_
*224 _180_
*225 _181_
*226 _182_
*227 _183_
*228 _184_
*229 _185_
*230 _186_
*231 _187_
*232 _188_
*233 _189_
*234 _190_
*235 _191_
*236 _192_
*237 _193_
*238 _194_
*239 _195_
*240 _196_
*241 _197_
*242 _198_
*243 _199_
*244 _200_
*245 _201_
*246 _202_
*247 _203_
*248 _204_
*249 _205_
*250 _206_
*251 _207_
*252 _208_
*253 _209_
*254 _210_
*255 _211_
*256 _212_
*257 _213_
*258 _214_
*259 _215_
*260 _216_
*261 _217_
*262 _218_
*263 _219_
*264 _220_
*265 _221_
*266 _222_
*267 _223_
*268 _224_
*269 _225_
*270 _226_
*271 _227_
*272 _228_
*273 _229_
*274 _230_
*275 _231_
*276 _232_
*277 _233_
*278 _234_
*279 _235_
*280 _236_
*281 _237_
*282 _238_
*283 _239_
*284 _240_
*285 _241_
*286 a1\.in\[0\]
*287 a1\.in\[1\]
*288 a1\.in\[2\]
*289 a1\.in\[3\]
*290 a1\.in\[4\]
*291 a1\.in\[5\]
*292 a1\.out
*293 a2\.in\[0\]
*294 a2\.in\[1\]
*295 a2\.in\[2\]
*296 a2\.in\[3\]
*297 a2\.in\[4\]
*298 a2\.out
*299 a3\.in\[0\]
*300 a3\.in\[1\]
*301 a3\.in\[2\]
*302 a3\.in\[3\]
*303 a3\.in\[4\]
*304 a3\.out
*305 a4\.in\[0\]
*306 a4\.in\[1\]
*307 a4\.in\[2\]
*308 a4\.in\[3\]
*309 a4\.in\[4\]
*310 a4\.out
*311 a5\.in\[0\]
*312 a5\.in\[1\]
*313 a5\.in\[2\]
*314 a5\.in\[3\]
*315 a5\.in\[4\]
*316 a5\.out
*317 a6\.in\[0\]
*318 a6\.in\[1\]
*319 a6\.in\[2\]
*320 a6\.in\[3\]
*321 a6\.in\[4\]
*322 a6\.out
*323 a7\.in\[0\]
*324 a7\.in\[1\]
*325 a7\.in\[2\]
*326 a7\.in\[3\]
*327 a7\.in\[4\]
*328 a7\.out
*329 a8\.in\[0\]
*330 a8\.in\[1\]
*331 a8\.in\[2\]
*332 a8\.in\[3\]
*333 a8\.in\[4\]
*334 a8\.out
*335 clknet_0_clk
*336 clknet_2_0__leaf_clk
*337 clknet_2_1__leaf_clk
*338 clknet_2_2__leaf_clk
*339 clknet_2_3__leaf_clk
*340 net1
*341 net2
*342 net25
*343 net26
*344 net3
*345 net4
*346 net5
*347 net6
*348 net7
*349 net8
*350 FILLER_0_0_109
*351 FILLER_0_0_113
*352 FILLER_0_0_125
*353 FILLER_0_0_137
*354 FILLER_0_0_141
*355 FILLER_0_0_15
*356 FILLER_0_0_153
*357 FILLER_0_0_165
*358 FILLER_0_0_169
*359 FILLER_0_0_181
*360 FILLER_0_0_193
*361 FILLER_0_0_197
*362 FILLER_0_0_209
*363 FILLER_0_0_221
*364 FILLER_0_0_225
*365 FILLER_0_0_237
*366 FILLER_0_0_249
*367 FILLER_0_0_253
*368 FILLER_0_0_265
*369 FILLER_0_0_27
*370 FILLER_0_0_277
*371 FILLER_0_0_281
*372 FILLER_0_0_29
*373 FILLER_0_0_293
*374 FILLER_0_0_3
*375 FILLER_0_0_305
*376 FILLER_0_0_309
*377 FILLER_0_0_321
*378 FILLER_0_0_333
*379 FILLER_0_0_337
*380 FILLER_0_0_349
*381 FILLER_0_0_41
*382 FILLER_0_0_53
*383 FILLER_0_0_57
*384 FILLER_0_0_69
*385 FILLER_0_0_81
*386 FILLER_0_0_85
*387 FILLER_0_0_97
*388 FILLER_0_10_109
*389 FILLER_0_10_121
*390 FILLER_0_10_133
*391 FILLER_0_10_139
*392 FILLER_0_10_141
*393 FILLER_0_10_15
*394 FILLER_0_10_153
*395 FILLER_0_10_165
*396 FILLER_0_10_177
*397 FILLER_0_10_189
*398 FILLER_0_10_195
*399 FILLER_0_10_197
*400 FILLER_0_10_209
*401 FILLER_0_10_221
*402 FILLER_0_10_233
*403 FILLER_0_10_245
*404 FILLER_0_10_251
*405 FILLER_0_10_253
*406 FILLER_0_10_265
*407 FILLER_0_10_27
*408 FILLER_0_10_277
*409 FILLER_0_10_289
*410 FILLER_0_10_29
*411 FILLER_0_10_3
*412 FILLER_0_10_301
*413 FILLER_0_10_307
*414 FILLER_0_10_309
*415 FILLER_0_10_321
*416 FILLER_0_10_333
*417 FILLER_0_10_345
*418 FILLER_0_10_41
*419 FILLER_0_10_53
*420 FILLER_0_10_65
*421 FILLER_0_10_77
*422 FILLER_0_10_83
*423 FILLER_0_10_85
*424 FILLER_0_10_97
*425 FILLER_0_11_105
*426 FILLER_0_11_111
*427 FILLER_0_11_113
*428 FILLER_0_11_125
*429 FILLER_0_11_137
*430 FILLER_0_11_149
*431 FILLER_0_11_15
*432 FILLER_0_11_161
*433 FILLER_0_11_167
*434 FILLER_0_11_169
*435 FILLER_0_11_181
*436 FILLER_0_11_193
*437 FILLER_0_11_205
*438 FILLER_0_11_217
*439 FILLER_0_11_223
*440 FILLER_0_11_225
*441 FILLER_0_11_237
*442 FILLER_0_11_249
*443 FILLER_0_11_261
*444 FILLER_0_11_27
*445 FILLER_0_11_273
*446 FILLER_0_11_279
*447 FILLER_0_11_281
*448 FILLER_0_11_293
*449 FILLER_0_11_3
*450 FILLER_0_11_305
*451 FILLER_0_11_317
*452 FILLER_0_11_329
*453 FILLER_0_11_335
*454 FILLER_0_11_337
*455 FILLER_0_11_349
*456 FILLER_0_11_39
*457 FILLER_0_11_51
*458 FILLER_0_11_55
*459 FILLER_0_11_57
*460 FILLER_0_11_69
*461 FILLER_0_11_81
*462 FILLER_0_11_93
*463 FILLER_0_12_109
*464 FILLER_0_12_121
*465 FILLER_0_12_133
*466 FILLER_0_12_139
*467 FILLER_0_12_141
*468 FILLER_0_12_15
*469 FILLER_0_12_153
*470 FILLER_0_12_165
*471 FILLER_0_12_177
*472 FILLER_0_12_189
*473 FILLER_0_12_195
*474 FILLER_0_12_197
*475 FILLER_0_12_209
*476 FILLER_0_12_221
*477 FILLER_0_12_233
*478 FILLER_0_12_245
*479 FILLER_0_12_251
*480 FILLER_0_12_253
*481 FILLER_0_12_265
*482 FILLER_0_12_27
*483 FILLER_0_12_277
*484 FILLER_0_12_289
*485 FILLER_0_12_29
*486 FILLER_0_12_3
*487 FILLER_0_12_301
*488 FILLER_0_12_307
*489 FILLER_0_12_309
*490 FILLER_0_12_321
*491 FILLER_0_12_333
*492 FILLER_0_12_345
*493 FILLER_0_12_41
*494 FILLER_0_12_53
*495 FILLER_0_12_65
*496 FILLER_0_12_77
*497 FILLER_0_12_83
*498 FILLER_0_12_85
*499 FILLER_0_12_97
*500 FILLER_0_13_105
*501 FILLER_0_13_111
*502 FILLER_0_13_113
*503 FILLER_0_13_125
*504 FILLER_0_13_137
*505 FILLER_0_13_149
*506 FILLER_0_13_15
*507 FILLER_0_13_161
*508 FILLER_0_13_167
*509 FILLER_0_13_169
*510 FILLER_0_13_181
*511 FILLER_0_13_193
*512 FILLER_0_13_205
*513 FILLER_0_13_217
*514 FILLER_0_13_223
*515 FILLER_0_13_225
*516 FILLER_0_13_237
*517 FILLER_0_13_249
*518 FILLER_0_13_261
*519 FILLER_0_13_27
*520 FILLER_0_13_273
*521 FILLER_0_13_279
*522 FILLER_0_13_281
*523 FILLER_0_13_293
*524 FILLER_0_13_3
*525 FILLER_0_13_305
*526 FILLER_0_13_317
*527 FILLER_0_13_329
*528 FILLER_0_13_335
*529 FILLER_0_13_337
*530 FILLER_0_13_349
*531 FILLER_0_13_39
*532 FILLER_0_13_51
*533 FILLER_0_13_55
*534 FILLER_0_13_57
*535 FILLER_0_13_69
*536 FILLER_0_13_81
*537 FILLER_0_13_93
*538 FILLER_0_14_109
*539 FILLER_0_14_121
*540 FILLER_0_14_133
*541 FILLER_0_14_139
*542 FILLER_0_14_141
*543 FILLER_0_14_15
*544 FILLER_0_14_153
*545 FILLER_0_14_165
*546 FILLER_0_14_177
*547 FILLER_0_14_189
*548 FILLER_0_14_195
*549 FILLER_0_14_197
*550 FILLER_0_14_209
*551 FILLER_0_14_221
*552 FILLER_0_14_233
*553 FILLER_0_14_245
*554 FILLER_0_14_251
*555 FILLER_0_14_253
*556 FILLER_0_14_265
*557 FILLER_0_14_27
*558 FILLER_0_14_277
*559 FILLER_0_14_289
*560 FILLER_0_14_29
*561 FILLER_0_14_3
*562 FILLER_0_14_301
*563 FILLER_0_14_307
*564 FILLER_0_14_309
*565 FILLER_0_14_321
*566 FILLER_0_14_333
*567 FILLER_0_14_345
*568 FILLER_0_14_41
*569 FILLER_0_14_53
*570 FILLER_0_14_65
*571 FILLER_0_14_77
*572 FILLER_0_14_83
*573 FILLER_0_14_85
*574 FILLER_0_14_97
*575 FILLER_0_15_105
*576 FILLER_0_15_111
*577 FILLER_0_15_113
*578 FILLER_0_15_125
*579 FILLER_0_15_137
*580 FILLER_0_15_149
*581 FILLER_0_15_15
*582 FILLER_0_15_161
*583 FILLER_0_15_167
*584 FILLER_0_15_169
*585 FILLER_0_15_181
*586 FILLER_0_15_193
*587 FILLER_0_15_205
*588 FILLER_0_15_217
*589 FILLER_0_15_223
*590 FILLER_0_15_225
*591 FILLER_0_15_237
*592 FILLER_0_15_249
*593 FILLER_0_15_261
*594 FILLER_0_15_27
*595 FILLER_0_15_273
*596 FILLER_0_15_279
*597 FILLER_0_15_281
*598 FILLER_0_15_293
*599 FILLER_0_15_3
*600 FILLER_0_15_305
*601 FILLER_0_15_317
*602 FILLER_0_15_329
*603 FILLER_0_15_335
*604 FILLER_0_15_337
*605 FILLER_0_15_349
*606 FILLER_0_15_39
*607 FILLER_0_15_51
*608 FILLER_0_15_55
*609 FILLER_0_15_57
*610 FILLER_0_15_69
*611 FILLER_0_15_81
*612 FILLER_0_15_93
*613 FILLER_0_16_109
*614 FILLER_0_16_121
*615 FILLER_0_16_133
*616 FILLER_0_16_139
*617 FILLER_0_16_141
*618 FILLER_0_16_15
*619 FILLER_0_16_153
*620 FILLER_0_16_165
*621 FILLER_0_16_177
*622 FILLER_0_16_189
*623 FILLER_0_16_195
*624 FILLER_0_16_197
*625 FILLER_0_16_209
*626 FILLER_0_16_221
*627 FILLER_0_16_233
*628 FILLER_0_16_245
*629 FILLER_0_16_251
*630 FILLER_0_16_253
*631 FILLER_0_16_265
*632 FILLER_0_16_27
*633 FILLER_0_16_277
*634 FILLER_0_16_289
*635 FILLER_0_16_29
*636 FILLER_0_16_3
*637 FILLER_0_16_301
*638 FILLER_0_16_307
*639 FILLER_0_16_309
*640 FILLER_0_16_321
*641 FILLER_0_16_333
*642 FILLER_0_16_345
*643 FILLER_0_16_41
*644 FILLER_0_16_53
*645 FILLER_0_16_65
*646 FILLER_0_16_77
*647 FILLER_0_16_83
*648 FILLER_0_16_85
*649 FILLER_0_16_97
*650 FILLER_0_17_105
*651 FILLER_0_17_111
*652 FILLER_0_17_113
*653 FILLER_0_17_125
*654 FILLER_0_17_137
*655 FILLER_0_17_149
*656 FILLER_0_17_15
*657 FILLER_0_17_161
*658 FILLER_0_17_167
*659 FILLER_0_17_169
*660 FILLER_0_17_181
*661 FILLER_0_17_193
*662 FILLER_0_17_205
*663 FILLER_0_17_217
*664 FILLER_0_17_223
*665 FILLER_0_17_225
*666 FILLER_0_17_237
*667 FILLER_0_17_249
*668 FILLER_0_17_261
*669 FILLER_0_17_27
*670 FILLER_0_17_273
*671 FILLER_0_17_279
*672 FILLER_0_17_281
*673 FILLER_0_17_293
*674 FILLER_0_17_3
*675 FILLER_0_17_305
*676 FILLER_0_17_317
*677 FILLER_0_17_329
*678 FILLER_0_17_335
*679 FILLER_0_17_337
*680 FILLER_0_17_349
*681 FILLER_0_17_39
*682 FILLER_0_17_51
*683 FILLER_0_17_55
*684 FILLER_0_17_57
*685 FILLER_0_17_69
*686 FILLER_0_17_81
*687 FILLER_0_17_93
*688 FILLER_0_18_109
*689 FILLER_0_18_121
*690 FILLER_0_18_133
*691 FILLER_0_18_139
*692 FILLER_0_18_141
*693 FILLER_0_18_15
*694 FILLER_0_18_153
*695 FILLER_0_18_165
*696 FILLER_0_18_177
*697 FILLER_0_18_189
*698 FILLER_0_18_195
*699 FILLER_0_18_197
*700 FILLER_0_18_209
*701 FILLER_0_18_221
*702 FILLER_0_18_233
*703 FILLER_0_18_245
*704 FILLER_0_18_251
*705 FILLER_0_18_253
*706 FILLER_0_18_265
*707 FILLER_0_18_27
*708 FILLER_0_18_277
*709 FILLER_0_18_289
*710 FILLER_0_18_29
*711 FILLER_0_18_3
*712 FILLER_0_18_301
*713 FILLER_0_18_307
*714 FILLER_0_18_309
*715 FILLER_0_18_321
*716 FILLER_0_18_333
*717 FILLER_0_18_345
*718 FILLER_0_18_41
*719 FILLER_0_18_53
*720 FILLER_0_18_65
*721 FILLER_0_18_77
*722 FILLER_0_18_83
*723 FILLER_0_18_85
*724 FILLER_0_18_97
*725 FILLER_0_19_105
*726 FILLER_0_19_111
*727 FILLER_0_19_113
*728 FILLER_0_19_125
*729 FILLER_0_19_137
*730 FILLER_0_19_149
*731 FILLER_0_19_15
*732 FILLER_0_19_161
*733 FILLER_0_19_167
*734 FILLER_0_19_169
*735 FILLER_0_19_181
*736 FILLER_0_19_193
*737 FILLER_0_19_205
*738 FILLER_0_19_217
*739 FILLER_0_19_223
*740 FILLER_0_19_225
*741 FILLER_0_19_237
*742 FILLER_0_19_249
*743 FILLER_0_19_261
*744 FILLER_0_19_27
*745 FILLER_0_19_273
*746 FILLER_0_19_279
*747 FILLER_0_19_281
*748 FILLER_0_19_293
*749 FILLER_0_19_3
*750 FILLER_0_19_305
*751 FILLER_0_19_317
*752 FILLER_0_19_329
*753 FILLER_0_19_335
*754 FILLER_0_19_337
*755 FILLER_0_19_349
*756 FILLER_0_19_39
*757 FILLER_0_19_51
*758 FILLER_0_19_55
*759 FILLER_0_19_57
*760 FILLER_0_19_69
*761 FILLER_0_19_81
*762 FILLER_0_19_93
*763 FILLER_0_1_105
*764 FILLER_0_1_111
*765 FILLER_0_1_113
*766 FILLER_0_1_125
*767 FILLER_0_1_137
*768 FILLER_0_1_149
*769 FILLER_0_1_15
*770 FILLER_0_1_161
*771 FILLER_0_1_167
*772 FILLER_0_1_169
*773 FILLER_0_1_181
*774 FILLER_0_1_193
*775 FILLER_0_1_205
*776 FILLER_0_1_217
*777 FILLER_0_1_223
*778 FILLER_0_1_225
*779 FILLER_0_1_237
*780 FILLER_0_1_249
*781 FILLER_0_1_261
*782 FILLER_0_1_27
*783 FILLER_0_1_273
*784 FILLER_0_1_279
*785 FILLER_0_1_281
*786 FILLER_0_1_293
*787 FILLER_0_1_3
*788 FILLER_0_1_305
*789 FILLER_0_1_317
*790 FILLER_0_1_329
*791 FILLER_0_1_335
*792 FILLER_0_1_337
*793 FILLER_0_1_349
*794 FILLER_0_1_39
*795 FILLER_0_1_51
*796 FILLER_0_1_55
*797 FILLER_0_1_57
*798 FILLER_0_1_69
*799 FILLER_0_1_81
*800 FILLER_0_1_93
*801 FILLER_0_20_109
*802 FILLER_0_20_121
*803 FILLER_0_20_133
*804 FILLER_0_20_139
*805 FILLER_0_20_15
*806 FILLER_0_20_157
*807 FILLER_0_20_169
*808 FILLER_0_20_181
*809 FILLER_0_20_193
*810 FILLER_0_20_200
*811 FILLER_0_20_217
*812 FILLER_0_20_229
*813 FILLER_0_20_241
*814 FILLER_0_20_249
*815 FILLER_0_20_253
*816 FILLER_0_20_265
*817 FILLER_0_20_27
*818 FILLER_0_20_277
*819 FILLER_0_20_289
*820 FILLER_0_20_29
*821 FILLER_0_20_3
*822 FILLER_0_20_301
*823 FILLER_0_20_307
*824 FILLER_0_20_309
*825 FILLER_0_20_321
*826 FILLER_0_20_333
*827 FILLER_0_20_345
*828 FILLER_0_20_41
*829 FILLER_0_20_53
*830 FILLER_0_20_65
*831 FILLER_0_20_77
*832 FILLER_0_20_83
*833 FILLER_0_20_85
*834 FILLER_0_20_97
*835 FILLER_0_21_105
*836 FILLER_0_21_111
*837 FILLER_0_21_113
*838 FILLER_0_21_121
*839 FILLER_0_21_129
*840 FILLER_0_21_133
*841 FILLER_0_21_15
*842 FILLER_0_21_151
*843 FILLER_0_21_164
*844 FILLER_0_21_169
*845 FILLER_0_21_181
*846 FILLER_0_21_193
*847 FILLER_0_21_219
*848 FILLER_0_21_223
*849 FILLER_0_21_225
*850 FILLER_0_21_237
*851 FILLER_0_21_248
*852 FILLER_0_21_261
*853 FILLER_0_21_27
*854 FILLER_0_21_273
*855 FILLER_0_21_279
*856 FILLER_0_21_281
*857 FILLER_0_21_293
*858 FILLER_0_21_3
*859 FILLER_0_21_305
*860 FILLER_0_21_317
*861 FILLER_0_21_329
*862 FILLER_0_21_335
*863 FILLER_0_21_337
*864 FILLER_0_21_349
*865 FILLER_0_21_39
*866 FILLER_0_21_51
*867 FILLER_0_21_55
*868 FILLER_0_21_57
*869 FILLER_0_21_69
*870 FILLER_0_21_81
*871 FILLER_0_21_93
*872 FILLER_0_22_109
*873 FILLER_0_22_141
*874 FILLER_0_22_15
*875 FILLER_0_22_153
*876 FILLER_0_22_157
*877 FILLER_0_22_190
*878 FILLER_0_22_229
*879 FILLER_0_22_235
*880 FILLER_0_22_269
*881 FILLER_0_22_27
*882 FILLER_0_22_277
*883 FILLER_0_22_29
*884 FILLER_0_22_296
*885 FILLER_0_22_3
*886 FILLER_0_22_307
*887 FILLER_0_22_309
*888 FILLER_0_22_321
*889 FILLER_0_22_333
*890 FILLER_0_22_345
*891 FILLER_0_22_41
*892 FILLER_0_22_53
*893 FILLER_0_22_65
*894 FILLER_0_22_77
*895 FILLER_0_22_83
*896 FILLER_0_22_85
*897 FILLER_0_22_97
*898 FILLER_0_23_105
*899 FILLER_0_23_111
*900 FILLER_0_23_113
*901 FILLER_0_23_125
*902 FILLER_0_23_138
*903 FILLER_0_23_15
*904 FILLER_0_23_150
*905 FILLER_0_23_161
*906 FILLER_0_23_167
*907 FILLER_0_23_169
*908 FILLER_0_23_181
*909 FILLER_0_23_185
*910 FILLER_0_23_192
*911 FILLER_0_23_200
*912 FILLER_0_23_225
*913 FILLER_0_23_237
*914 FILLER_0_23_249
*915 FILLER_0_23_27
*916 FILLER_0_23_276
*917 FILLER_0_23_281
*918 FILLER_0_23_3
*919 FILLER_0_23_316
*920 FILLER_0_23_328
*921 FILLER_0_23_337
*922 FILLER_0_23_349
*923 FILLER_0_23_39
*924 FILLER_0_23_51
*925 FILLER_0_23_55
*926 FILLER_0_23_57
*927 FILLER_0_23_69
*928 FILLER_0_23_81
*929 FILLER_0_23_93
*930 FILLER_0_24_109
*931 FILLER_0_24_127
*932 FILLER_0_24_139
*933 FILLER_0_24_141
*934 FILLER_0_24_15
*935 FILLER_0_24_165
*936 FILLER_0_24_177
*937 FILLER_0_24_189
*938 FILLER_0_24_195
*939 FILLER_0_24_197
*940 FILLER_0_24_218
*941 FILLER_0_24_230
*942 FILLER_0_24_242
*943 FILLER_0_24_250
*944 FILLER_0_24_256
*945 FILLER_0_24_27
*946 FILLER_0_24_280
*947 FILLER_0_24_284
*948 FILLER_0_24_29
*949 FILLER_0_24_3
*950 FILLER_0_24_309
*951 FILLER_0_24_321
*952 FILLER_0_24_333
*953 FILLER_0_24_345
*954 FILLER_0_24_41
*955 FILLER_0_24_53
*956 FILLER_0_24_65
*957 FILLER_0_24_77
*958 FILLER_0_24_83
*959 FILLER_0_24_85
*960 FILLER_0_24_97
*961 FILLER_0_25_105
*962 FILLER_0_25_111
*963 FILLER_0_25_113
*964 FILLER_0_25_125
*965 FILLER_0_25_137
*966 FILLER_0_25_145
*967 FILLER_0_25_15
*968 FILLER_0_25_166
*969 FILLER_0_25_177
*970 FILLER_0_25_189
*971 FILLER_0_25_210
*972 FILLER_0_25_231
*973 FILLER_0_25_243
*974 FILLER_0_25_255
*975 FILLER_0_25_263
*976 FILLER_0_25_27
*977 FILLER_0_25_284
*978 FILLER_0_25_289
*979 FILLER_0_25_3
*980 FILLER_0_25_300
*981 FILLER_0_25_312
*982 FILLER_0_25_324
*983 FILLER_0_25_337
*984 FILLER_0_25_349
*985 FILLER_0_25_39
*986 FILLER_0_25_51
*987 FILLER_0_25_55
*988 FILLER_0_25_57
*989 FILLER_0_25_69
*990 FILLER_0_25_81
*991 FILLER_0_25_93
*992 FILLER_0_26_109
*993 FILLER_0_26_127
*994 FILLER_0_26_133
*995 FILLER_0_26_139
*996 FILLER_0_26_15
*997 FILLER_0_26_171
*998 FILLER_0_26_175
*999 FILLER_0_26_185
*1000 FILLER_0_26_193
*1001 FILLER_0_26_197
*1002 FILLER_0_26_208
*1003 FILLER_0_26_212
*1004 FILLER_0_26_219
*1005 FILLER_0_26_235
*1006 FILLER_0_26_247
*1007 FILLER_0_26_269
*1008 FILLER_0_26_27
*1009 FILLER_0_26_281
*1010 FILLER_0_26_29
*1011 FILLER_0_26_293
*1012 FILLER_0_26_3
*1013 FILLER_0_26_305
*1014 FILLER_0_26_312
*1015 FILLER_0_26_324
*1016 FILLER_0_26_336
*1017 FILLER_0_26_348
*1018 FILLER_0_26_41
*1019 FILLER_0_26_53
*1020 FILLER_0_26_65
*1021 FILLER_0_26_77
*1022 FILLER_0_26_83
*1023 FILLER_0_26_85
*1024 FILLER_0_26_97
*1025 FILLER_0_27_130
*1026 FILLER_0_27_142
*1027 FILLER_0_27_15
*1028 FILLER_0_27_163
*1029 FILLER_0_27_167
*1030 FILLER_0_27_169
*1031 FILLER_0_27_181
*1032 FILLER_0_27_188
*1033 FILLER_0_27_199
*1034 FILLER_0_27_211
*1035 FILLER_0_27_215
*1036 FILLER_0_27_223
*1037 FILLER_0_27_232
*1038 FILLER_0_27_244
*1039 FILLER_0_27_256
*1040 FILLER_0_27_27
*1041 FILLER_0_27_278
*1042 FILLER_0_27_281
*1043 FILLER_0_27_293
*1044 FILLER_0_27_299
*1045 FILLER_0_27_3
*1046 FILLER_0_27_330
*1047 FILLER_0_27_337
*1048 FILLER_0_27_349
*1049 FILLER_0_27_39
*1050 FILLER_0_27_51
*1051 FILLER_0_27_55
*1052 FILLER_0_27_57
*1053 FILLER_0_27_69
*1054 FILLER_0_27_81
*1055 FILLER_0_27_93
*1056 FILLER_0_28_109
*1057 FILLER_0_28_115
*1058 FILLER_0_28_125
*1059 FILLER_0_28_137
*1060 FILLER_0_28_141
*1061 FILLER_0_28_15
*1062 FILLER_0_28_165
*1063 FILLER_0_28_177
*1064 FILLER_0_28_185
*1065 FILLER_0_28_195
*1066 FILLER_0_28_208
*1067 FILLER_0_28_214
*1068 FILLER_0_28_235
*1069 FILLER_0_28_247
*1070 FILLER_0_28_251
*1071 FILLER_0_28_27
*1072 FILLER_0_28_279
*1073 FILLER_0_28_29
*1074 FILLER_0_28_291
*1075 FILLER_0_28_3
*1076 FILLER_0_28_303
*1077 FILLER_0_28_307
*1078 FILLER_0_28_342
*1079 FILLER_0_28_350
*1080 FILLER_0_28_41
*1081 FILLER_0_28_53
*1082 FILLER_0_28_65
*1083 FILLER_0_28_77
*1084 FILLER_0_28_83
*1085 FILLER_0_28_85
*1086 FILLER_0_28_97
*1087 FILLER_0_29_105
*1088 FILLER_0_29_111
*1089 FILLER_0_29_113
*1090 FILLER_0_29_125
*1091 FILLER_0_29_137
*1092 FILLER_0_29_141
*1093 FILLER_0_29_15
*1094 FILLER_0_29_169
*1095 FILLER_0_29_181
*1096 FILLER_0_29_207
*1097 FILLER_0_29_228
*1098 FILLER_0_29_250
*1099 FILLER_0_29_256
*1100 FILLER_0_29_27
*1101 FILLER_0_29_3
*1102 FILLER_0_29_300
*1103 FILLER_0_29_312
*1104 FILLER_0_29_337
*1105 FILLER_0_29_349
*1106 FILLER_0_29_39
*1107 FILLER_0_29_51
*1108 FILLER_0_29_55
*1109 FILLER_0_29_57
*1110 FILLER_0_29_69
*1111 FILLER_0_29_81
*1112 FILLER_0_29_93
*1113 FILLER_0_2_109
*1114 FILLER_0_2_121
*1115 FILLER_0_2_133
*1116 FILLER_0_2_139
*1117 FILLER_0_2_141
*1118 FILLER_0_2_15
*1119 FILLER_0_2_153
*1120 FILLER_0_2_165
*1121 FILLER_0_2_177
*1122 FILLER_0_2_189
*1123 FILLER_0_2_195
*1124 FILLER_0_2_197
*1125 FILLER_0_2_209
*1126 FILLER_0_2_221
*1127 FILLER_0_2_233
*1128 FILLER_0_2_245
*1129 FILLER_0_2_251
*1130 FILLER_0_2_253
*1131 FILLER_0_2_265
*1132 FILLER_0_2_27
*1133 FILLER_0_2_277
*1134 FILLER_0_2_289
*1135 FILLER_0_2_29
*1136 FILLER_0_2_3
*1137 FILLER_0_2_301
*1138 FILLER_0_2_307
*1139 FILLER_0_2_309
*1140 FILLER_0_2_321
*1141 FILLER_0_2_333
*1142 FILLER_0_2_345
*1143 FILLER_0_2_41
*1144 FILLER_0_2_53
*1145 FILLER_0_2_65
*1146 FILLER_0_2_77
*1147 FILLER_0_2_83
*1148 FILLER_0_2_85
*1149 FILLER_0_2_97
*1150 FILLER_0_30_134
*1151 FILLER_0_30_15
*1152 FILLER_0_30_162
*1153 FILLER_0_30_174
*1154 FILLER_0_30_182
*1155 FILLER_0_30_192
*1156 FILLER_0_30_202
*1157 FILLER_0_30_253
*1158 FILLER_0_30_265
*1159 FILLER_0_30_27
*1160 FILLER_0_30_271
*1161 FILLER_0_30_278
*1162 FILLER_0_30_29
*1163 FILLER_0_30_290
*1164 FILLER_0_30_299
*1165 FILLER_0_30_3
*1166 FILLER_0_30_307
*1167 FILLER_0_30_320
*1168 FILLER_0_30_348
*1169 FILLER_0_30_41
*1170 FILLER_0_30_53
*1171 FILLER_0_30_65
*1172 FILLER_0_30_77
*1173 FILLER_0_30_83
*1174 FILLER_0_30_85
*1175 FILLER_0_30_93
*1176 FILLER_0_31_113
*1177 FILLER_0_31_117
*1178 FILLER_0_31_134
*1179 FILLER_0_31_138
*1180 FILLER_0_31_15
*1181 FILLER_0_31_150
*1182 FILLER_0_31_162
*1183 FILLER_0_31_166
*1184 FILLER_0_31_188
*1185 FILLER_0_31_210
*1186 FILLER_0_31_222
*1187 FILLER_0_31_232
*1188 FILLER_0_31_236
*1189 FILLER_0_31_248
*1190 FILLER_0_31_254
*1191 FILLER_0_31_267
*1192 FILLER_0_31_27
*1193 FILLER_0_31_273
*1194 FILLER_0_31_289
*1195 FILLER_0_31_297
*1196 FILLER_0_31_3
*1197 FILLER_0_31_309
*1198 FILLER_0_31_317
*1199 FILLER_0_31_337
*1200 FILLER_0_31_349
*1201 FILLER_0_31_39
*1202 FILLER_0_31_51
*1203 FILLER_0_31_55
*1204 FILLER_0_31_57
*1205 FILLER_0_31_69
*1206 FILLER_0_31_81
*1207 FILLER_0_31_89
*1208 FILLER_0_32_129
*1209 FILLER_0_32_137
*1210 FILLER_0_32_141
*1211 FILLER_0_32_15
*1212 FILLER_0_32_153
*1213 FILLER_0_32_179
*1214 FILLER_0_32_191
*1215 FILLER_0_32_195
*1216 FILLER_0_32_197
*1217 FILLER_0_32_209
*1218 FILLER_0_32_213
*1219 FILLER_0_32_225
*1220 FILLER_0_32_229
*1221 FILLER_0_32_249
*1222 FILLER_0_32_253
*1223 FILLER_0_32_259
*1224 FILLER_0_32_267
*1225 FILLER_0_32_27
*1226 FILLER_0_32_29
*1227 FILLER_0_32_292
*1228 FILLER_0_32_3
*1229 FILLER_0_32_304
*1230 FILLER_0_32_315
*1231 FILLER_0_32_323
*1232 FILLER_0_32_340
*1233 FILLER_0_32_348
*1234 FILLER_0_32_41
*1235 FILLER_0_32_53
*1236 FILLER_0_32_65
*1237 FILLER_0_32_77
*1238 FILLER_0_32_83
*1239 FILLER_0_32_85
*1240 FILLER_0_33_110
*1241 FILLER_0_33_113
*1242 FILLER_0_33_125
*1243 FILLER_0_33_137
*1244 FILLER_0_33_149
*1245 FILLER_0_33_15
*1246 FILLER_0_33_167
*1247 FILLER_0_33_172
*1248 FILLER_0_33_176
*1249 FILLER_0_33_183
*1250 FILLER_0_33_187
*1251 FILLER_0_33_198
*1252 FILLER_0_33_212
*1253 FILLER_0_33_225
*1254 FILLER_0_33_234
*1255 FILLER_0_33_246
*1256 FILLER_0_33_256
*1257 FILLER_0_33_268
*1258 FILLER_0_33_27
*1259 FILLER_0_33_291
*1260 FILLER_0_33_3
*1261 FILLER_0_33_318
*1262 FILLER_0_33_326
*1263 FILLER_0_33_333
*1264 FILLER_0_33_337
*1265 FILLER_0_33_349
*1266 FILLER_0_33_39
*1267 FILLER_0_33_51
*1268 FILLER_0_33_55
*1269 FILLER_0_33_57
*1270 FILLER_0_33_69
*1271 FILLER_0_33_81
*1272 FILLER_0_33_93
*1273 FILLER_0_34_105
*1274 FILLER_0_34_120
*1275 FILLER_0_34_128
*1276 FILLER_0_34_141
*1277 FILLER_0_34_15
*1278 FILLER_0_34_153
*1279 FILLER_0_34_159
*1280 FILLER_0_34_166
*1281 FILLER_0_34_175
*1282 FILLER_0_34_191
*1283 FILLER_0_34_195
*1284 FILLER_0_34_215
*1285 FILLER_0_34_229
*1286 FILLER_0_34_240
*1287 FILLER_0_34_27
*1288 FILLER_0_34_277
*1289 FILLER_0_34_289
*1290 FILLER_0_34_29
*1291 FILLER_0_34_3
*1292 FILLER_0_34_317
*1293 FILLER_0_34_325
*1294 FILLER_0_34_343
*1295 FILLER_0_34_41
*1296 FILLER_0_34_53
*1297 FILLER_0_34_65
*1298 FILLER_0_34_77
*1299 FILLER_0_34_83
*1300 FILLER_0_34_85
*1301 FILLER_0_34_97
*1302 FILLER_0_35_135
*1303 FILLER_0_35_147
*1304 FILLER_0_35_15
*1305 FILLER_0_35_159
*1306 FILLER_0_35_166
*1307 FILLER_0_35_174
*1308 FILLER_0_35_186
*1309 FILLER_0_35_192
*1310 FILLER_0_35_198
*1311 FILLER_0_35_202
*1312 FILLER_0_35_209
*1313 FILLER_0_35_218
*1314 FILLER_0_35_225
*1315 FILLER_0_35_237
*1316 FILLER_0_35_249
*1317 FILLER_0_35_268
*1318 FILLER_0_35_27
*1319 FILLER_0_35_281
*1320 FILLER_0_35_292
*1321 FILLER_0_35_3
*1322 FILLER_0_35_300
*1323 FILLER_0_35_306
*1324 FILLER_0_35_314
*1325 FILLER_0_35_337
*1326 FILLER_0_35_349
*1327 FILLER_0_35_39
*1328 FILLER_0_35_51
*1329 FILLER_0_35_55
*1330 FILLER_0_35_57
*1331 FILLER_0_35_69
*1332 FILLER_0_35_81
*1333 FILLER_0_35_93
*1334 FILLER_0_36_120
*1335 FILLER_0_36_15
*1336 FILLER_0_36_150
*1337 FILLER_0_36_167
*1338 FILLER_0_36_178
*1339 FILLER_0_36_190
*1340 FILLER_0_36_197
*1341 FILLER_0_36_206
*1342 FILLER_0_36_243
*1343 FILLER_0_36_251
*1344 FILLER_0_36_27
*1345 FILLER_0_36_29
*1346 FILLER_0_36_3
*1347 FILLER_0_36_300
*1348 FILLER_0_36_322
*1349 FILLER_0_36_41
*1350 FILLER_0_36_53
*1351 FILLER_0_36_65
*1352 FILLER_0_36_77
*1353 FILLER_0_36_83
*1354 FILLER_0_36_85
*1355 FILLER_0_36_93
*1356 FILLER_0_37_101
*1357 FILLER_0_37_107
*1358 FILLER_0_37_111
*1359 FILLER_0_37_129
*1360 FILLER_0_37_141
*1361 FILLER_0_37_149
*1362 FILLER_0_37_15
*1363 FILLER_0_37_161
*1364 FILLER_0_37_185
*1365 FILLER_0_37_193
*1366 FILLER_0_37_200
*1367 FILLER_0_37_206
*1368 FILLER_0_37_223
*1369 FILLER_0_37_268
*1370 FILLER_0_37_27
*1371 FILLER_0_37_276
*1372 FILLER_0_37_281
*1373 FILLER_0_37_286
*1374 FILLER_0_37_298
*1375 FILLER_0_37_3
*1376 FILLER_0_37_311
*1377 FILLER_0_37_315
*1378 FILLER_0_37_319
*1379 FILLER_0_37_343
*1380 FILLER_0_37_39
*1381 FILLER_0_37_51
*1382 FILLER_0_37_55
*1383 FILLER_0_37_57
*1384 FILLER_0_37_69
*1385 FILLER_0_37_81
*1386 FILLER_0_37_93
*1387 FILLER_0_38_104
*1388 FILLER_0_38_110
*1389 FILLER_0_38_116
*1390 FILLER_0_38_122
*1391 FILLER_0_38_128
*1392 FILLER_0_38_134
*1393 FILLER_0_38_141
*1394 FILLER_0_38_146
*1395 FILLER_0_38_15
*1396 FILLER_0_38_152
*1397 FILLER_0_38_158
*1398 FILLER_0_38_169
*1399 FILLER_0_38_181
*1400 FILLER_0_38_193
*1401 FILLER_0_38_197
*1402 FILLER_0_38_209
*1403 FILLER_0_38_221
*1404 FILLER_0_38_234
*1405 FILLER_0_38_246
*1406 FILLER_0_38_253
*1407 FILLER_0_38_261
*1408 FILLER_0_38_27
*1409 FILLER_0_38_275
*1410 FILLER_0_38_29
*1411 FILLER_0_38_291
*1412 FILLER_0_38_297
*1413 FILLER_0_38_3
*1414 FILLER_0_38_305
*1415 FILLER_0_38_309
*1416 FILLER_0_38_317
*1417 FILLER_0_38_337
*1418 FILLER_0_38_349
*1419 FILLER_0_38_41
*1420 FILLER_0_38_53
*1421 FILLER_0_38_57
*1422 FILLER_0_38_68
*1423 FILLER_0_38_74
*1424 FILLER_0_38_80
*1425 FILLER_0_38_88
*1426 FILLER_0_38_92
*1427 FILLER_0_38_98
*1428 FILLER_0_3_105
*1429 FILLER_0_3_111
*1430 FILLER_0_3_113
*1431 FILLER_0_3_125
*1432 FILLER_0_3_137
*1433 FILLER_0_3_149
*1434 FILLER_0_3_15
*1435 FILLER_0_3_161
*1436 FILLER_0_3_167
*1437 FILLER_0_3_169
*1438 FILLER_0_3_181
*1439 FILLER_0_3_193
*1440 FILLER_0_3_205
*1441 FILLER_0_3_217
*1442 FILLER_0_3_223
*1443 FILLER_0_3_225
*1444 FILLER_0_3_237
*1445 FILLER_0_3_249
*1446 FILLER_0_3_261
*1447 FILLER_0_3_27
*1448 FILLER_0_3_273
*1449 FILLER_0_3_279
*1450 FILLER_0_3_281
*1451 FILLER_0_3_293
*1452 FILLER_0_3_3
*1453 FILLER_0_3_305
*1454 FILLER_0_3_317
*1455 FILLER_0_3_329
*1456 FILLER_0_3_335
*1457 FILLER_0_3_337
*1458 FILLER_0_3_349
*1459 FILLER_0_3_39
*1460 FILLER_0_3_51
*1461 FILLER_0_3_55
*1462 FILLER_0_3_57
*1463 FILLER_0_3_69
*1464 FILLER_0_3_81
*1465 FILLER_0_3_93
*1466 FILLER_0_4_109
*1467 FILLER_0_4_121
*1468 FILLER_0_4_133
*1469 FILLER_0_4_139
*1470 FILLER_0_4_141
*1471 FILLER_0_4_15
*1472 FILLER_0_4_153
*1473 FILLER_0_4_165
*1474 FILLER_0_4_177
*1475 FILLER_0_4_189
*1476 FILLER_0_4_195
*1477 FILLER_0_4_197
*1478 FILLER_0_4_209
*1479 FILLER_0_4_221
*1480 FILLER_0_4_233
*1481 FILLER_0_4_245
*1482 FILLER_0_4_251
*1483 FILLER_0_4_253
*1484 FILLER_0_4_265
*1485 FILLER_0_4_27
*1486 FILLER_0_4_277
*1487 FILLER_0_4_289
*1488 FILLER_0_4_29
*1489 FILLER_0_4_3
*1490 FILLER_0_4_301
*1491 FILLER_0_4_307
*1492 FILLER_0_4_309
*1493 FILLER_0_4_321
*1494 FILLER_0_4_333
*1495 FILLER_0_4_345
*1496 FILLER_0_4_41
*1497 FILLER_0_4_53
*1498 FILLER_0_4_65
*1499 FILLER_0_4_77
*1500 FILLER_0_4_83
*1501 FILLER_0_4_85
*1502 FILLER_0_4_97
*1503 FILLER_0_5_105
*1504 FILLER_0_5_111
*1505 FILLER_0_5_113
*1506 FILLER_0_5_125
*1507 FILLER_0_5_137
*1508 FILLER_0_5_149
*1509 FILLER_0_5_15
*1510 FILLER_0_5_161
*1511 FILLER_0_5_167
*1512 FILLER_0_5_169
*1513 FILLER_0_5_181
*1514 FILLER_0_5_193
*1515 FILLER_0_5_205
*1516 FILLER_0_5_217
*1517 FILLER_0_5_223
*1518 FILLER_0_5_225
*1519 FILLER_0_5_237
*1520 FILLER_0_5_249
*1521 FILLER_0_5_261
*1522 FILLER_0_5_27
*1523 FILLER_0_5_273
*1524 FILLER_0_5_279
*1525 FILLER_0_5_281
*1526 FILLER_0_5_293
*1527 FILLER_0_5_3
*1528 FILLER_0_5_305
*1529 FILLER_0_5_317
*1530 FILLER_0_5_329
*1531 FILLER_0_5_335
*1532 FILLER_0_5_337
*1533 FILLER_0_5_349
*1534 FILLER_0_5_39
*1535 FILLER_0_5_51
*1536 FILLER_0_5_55
*1537 FILLER_0_5_57
*1538 FILLER_0_5_69
*1539 FILLER_0_5_81
*1540 FILLER_0_5_93
*1541 FILLER_0_6_109
*1542 FILLER_0_6_121
*1543 FILLER_0_6_133
*1544 FILLER_0_6_139
*1545 FILLER_0_6_141
*1546 FILLER_0_6_15
*1547 FILLER_0_6_153
*1548 FILLER_0_6_165
*1549 FILLER_0_6_177
*1550 FILLER_0_6_189
*1551 FILLER_0_6_195
*1552 FILLER_0_6_197
*1553 FILLER_0_6_209
*1554 FILLER_0_6_221
*1555 FILLER_0_6_233
*1556 FILLER_0_6_245
*1557 FILLER_0_6_251
*1558 FILLER_0_6_253
*1559 FILLER_0_6_265
*1560 FILLER_0_6_27
*1561 FILLER_0_6_277
*1562 FILLER_0_6_289
*1563 FILLER_0_6_29
*1564 FILLER_0_6_3
*1565 FILLER_0_6_301
*1566 FILLER_0_6_307
*1567 FILLER_0_6_309
*1568 FILLER_0_6_321
*1569 FILLER_0_6_333
*1570 FILLER_0_6_345