*SPEF "ieee 1481-1999"
*DESIGN "tt_um_asinghani_tinyscanchain_tt05"
*DATE "11:11:11 Fri 11 11, 1111"
*VENDOR "OpenRCX"
*PROGRAM "Parallel Extraction"
*VERSION "1.0"
*DESIGN_FLOW "NAME_SCOPE LOCAL" "PIN_CAP NONE"
*DIVIDER /
*DELIMITER :
*BUS_DELIMITER []
*T_UNIT 1 NS
*C_UNIT 1 PF
*R_UNIT 1 OHM
*L_UNIT 1 HENRY

*NAME_MAP
*3 clk
*4 ena
*5 rst_n
*6 ui_in[0]
*7 ui_in[1]
*8 ui_in[2]
*9 ui_in[3]
*10 ui_in[4]
*11 ui_in[5]
*12 ui_in[6]
*13 ui_in[7]
*14 uio_in[0]
*15 uio_in[1]
*16 uio_in[2]
*17 uio_in[3]
*18 uio_in[4]
*19 uio_in[5]
*20 uio_in[6]
*21 uio_in[7]
*22 net4
*23 net5
*24 net6
*25 net7
*26 net8
*27 net9
*28 net10
*29 net11
*30 net12
*31 net13
*32 net14
*33 net15
*34 net16
*35 net17
*36 net18
*37 net19
*38 uo_out[0]
*39 uo_out[1]
*40 uo_out[2]
*41 uo_out[3]
*42 uo_out[4]
*43 uo_out[5]
*44 uo_out[6]
*45 uo_out[7]
*46 _000_
*47 _001_
*48 _002_
*49 _003_
*50 _004_
*51 _005_
*52 _006_
*53 _007_
*54 _008_
*55 _009_
*56 _010_
*57 _011_
*58 _012_
*59 _013_
*60 _014_
*61 _015_
*62 _016_
*63 _017_
*64 _018_
*65 _019_
*66 _020_
*67 _021_
*68 _022_
*69 _023_
*70 _024_
*71 _025_
*72 _026_
*73 _027_
*74 _028_
*75 _029_
*76 _030_
*77 _031_
*78 _032_
*79 _033_
*80 _034_
*81 _035_
*82 _036_
*83 _037_
*84 _038_
*85 _039_
*86 _040_
*87 _041_
*88 _042_
*89 _043_
*90 _044_
*91 _045_
*92 _046_
*93 _047_
*94 _048_
*95 _049_
*96 _050_
*97 _051_
*98 _052_
*99 _053_
*100 _054_
*101 _055_
*102 _056_
*103 _057_
*104 _058_
*105 _059_
*106 _060_
*107 _061_
*108 _062_
*109 _063_
*110 _064_
*111 _065_
*112 _066_
*113 _067_
*114 _068_
*115 _069_
*116 _070_
*117 _071_
*118 _072_
*119 _073_
*120 _074_
*121 _075_
*122 _076_
*123 _077_
*124 _078_
*125 _079_
*126 _080_
*127 _081_
*128 _082_
*129 _083_
*130 _084_
*131 _085_
*132 _086_
*133 _087_
*134 _088_
*135 _089_
*136 _090_
*137 _091_
*138 _092_
*139 _093_
*140 _094_
*141 _095_
*142 _096_
*143 _097_
*144 _098_
*145 _099_
*146 _100_
*147 _101_
*148 _102_
*149 _103_
*150 _104_
*151 _105_
*152 _106_
*153 _107_
*154 _108_
*155 _109_
*156 _110_
*157 _111_
*158 _112_
*159 _113_
*160 _114_
*161 _115_
*162 _116_
*163 _117_
*164 clknet_0_clk
*165 clknet_1_0__leaf_clk
*166 clknet_1_1__leaf_clk
*167 mod\._029_
*168 mod\._030_
*169 mod\._031_
*170 mod\._032_
*171 mod\._034_
*172 mod\._035_
*173 mod\._036_
*174 mod\.digit\[0\]
*175 mod\.digit\[1\]
*176 mod\.digit\[2\]
*177 mod\.digit\[3\]
*178 mod\.scan_out
*179 mod\.second_counter\[0\]
*180 mod\.second_counter\[10\]
*181 mod\.second_counter\[1\]
*182 mod\.second_counter\[2\]
*183 mod\.second_counter\[3\]
*184 mod\.second_counter\[4\]
*185 mod\.second_counter\[5\]
*186 mod\.second_counter\[6\]
*187 mod\.second_counter\[7\]
*188 mod\.second_counter\[8\]
*189 mod\.seg7\.segments\[0\]
*190 mod\.seg7\.segments\[1\]
*191 mod\.seg7\.segments\[2\]
*192 mod\.seg7\.segments\[3\]
*193 mod\.seg7\.segments\[4\]
*194 mod\.seg7\.segments\[5\]
*195 mod\.seg7\.segments\[6\]
*196 net1
*197 net2
*198 net20
*199 net21
*200 net22
*201 net23
*202 net24
*203 net25
*204 net26
*205 net27
*206 net28
*207 net29
*208 net3
*209 net30
*210 net31
*211 net32
*212 net33
*213 FILLER_0_0_109
*214 FILLER_0_0_113
*215 FILLER_0_0_125
*216 FILLER_0_0_137
*217 FILLER_0_0_141
*218 FILLER_0_0_15
*219 FILLER_0_0_153
*220 FILLER_0_0_165
*221 FILLER_0_0_169
*222 FILLER_0_0_181
*223 FILLER_0_0_193
*224 FILLER_0_0_197
*225 FILLER_0_0_209
*226 FILLER_0_0_221
*227 FILLER_0_0_225
*228 FILLER_0_0_237
*229 FILLER_0_0_249
*230 FILLER_0_0_253
*231 FILLER_0_0_265
*232 FILLER_0_0_27
*233 FILLER_0_0_277
*234 FILLER_0_0_281
*235 FILLER_0_0_29
*236 FILLER_0_0_293
*237 FILLER_0_0_3
*238 FILLER_0_0_305
*239 FILLER_0_0_309
*240 FILLER_0_0_321
*241 FILLER_0_0_333
*242 FILLER_0_0_337
*243 FILLER_0_0_349
*244 FILLER_0_0_41
*245 FILLER_0_0_53
*246 FILLER_0_0_57
*247 FILLER_0_0_69
*248 FILLER_0_0_81
*249 FILLER_0_0_85
*250 FILLER_0_0_97
*251 FILLER_0_10_109
*252 FILLER_0_10_121
*253 FILLER_0_10_133
*254 FILLER_0_10_139
*255 FILLER_0_10_141
*256 FILLER_0_10_15
*257 FILLER_0_10_153
*258 FILLER_0_10_165
*259 FILLER_0_10_177
*260 FILLER_0_10_189
*261 FILLER_0_10_195
*262 FILLER_0_10_197
*263 FILLER_0_10_209
*264 FILLER_0_10_221
*265 FILLER_0_10_233
*266 FILLER_0_10_245
*267 FILLER_0_10_251
*268 FILLER_0_10_253
*269 FILLER_0_10_265
*270 FILLER_0_10_27
*271 FILLER_0_10_277
*272 FILLER_0_10_289
*273 FILLER_0_10_29
*274 FILLER_0_10_3
*275 FILLER_0_10_301
*276 FILLER_0_10_307
*277 FILLER_0_10_309
*278 FILLER_0_10_321
*279 FILLER_0_10_333
*280 FILLER_0_10_345
*281 FILLER_0_10_41
*282 FILLER_0_10_53
*283 FILLER_0_10_65
*284 FILLER_0_10_77
*285 FILLER_0_10_83
*286 FILLER_0_10_85
*287 FILLER_0_10_97
*288 FILLER_0_11_105
*289 FILLER_0_11_111
*290 FILLER_0_11_113
*291 FILLER_0_11_125
*292 FILLER_0_11_137
*293 FILLER_0_11_149
*294 FILLER_0_11_15
*295 FILLER_0_11_161
*296 FILLER_0_11_167
*297 FILLER_0_11_169
*298 FILLER_0_11_181
*299 FILLER_0_11_193
*300 FILLER_0_11_205
*301 FILLER_0_11_217
*302 FILLER_0_11_223
*303 FILLER_0_11_225
*304 FILLER_0_11_237
*305 FILLER_0_11_249
*306 FILLER_0_11_261
*307 FILLER_0_11_27
*308 FILLER_0_11_273
*309 FILLER_0_11_279
*310 FILLER_0_11_281
*311 FILLER_0_11_293
*312 FILLER_0_11_3
*313 FILLER_0_11_305
*314 FILLER_0_11_317
*315 FILLER_0_11_329
*316 FILLER_0_11_335
*317 FILLER_0_11_337
*318 FILLER_0_11_349
*319 FILLER_0_11_39
*320 FILLER_0_11_51
*321 FILLER_0_11_55
*322 FILLER_0_11_57
*323 FILLER_0_11_69
*324 FILLER_0_11_81
*325 FILLER_0_11_93
*326 FILLER_0_12_109
*327 FILLER_0_12_121
*328 FILLER_0_12_133
*329 FILLER_0_12_139
*330 FILLER_0_12_141
*331 FILLER_0_12_15
*332 FILLER_0_12_153
*333 FILLER_0_12_165
*334 FILLER_0_12_177
*335 FILLER_0_12_189
*336 FILLER_0_12_195
*337 FILLER_0_12_197
*338 FILLER_0_12_209
*339 FILLER_0_12_221
*340 FILLER_0_12_233
*341 FILLER_0_12_245
*342 FILLER_0_12_251
*343 FILLER_0_12_253
*344 FILLER_0_12_265
*345 FILLER_0_12_27
*346 FILLER_0_12_277
*347 FILLER_0_12_289
*348 FILLER_0_12_29
*349 FILLER_0_12_3
*350 FILLER_0_12_301
*351 FILLER_0_12_307
*352 FILLER_0_12_309
*353 FILLER_0_12_321
*354 FILLER_0_12_333
*355 FILLER_0_12_345
*356 FILLER_0_12_41
*357 FILLER_0_12_53
*358 FILLER_0_12_65
*359 FILLER_0_12_77
*360 FILLER_0_12_83
*361 FILLER_0_12_85
*362 FILLER_0_12_97
*363 FILLER_0_13_105
*364 FILLER_0_13_111
*365 FILLER_0_13_113
*366 FILLER_0_13_125
*367 FILLER_0_13_137
*368 FILLER_0_13_149
*369 FILLER_0_13_15
*370 FILLER_0_13_161
*371 FILLER_0_13_167
*372 FILLER_0_13_169
*373 FILLER_0_13_181
*374 FILLER_0_13_193
*375 FILLER_0_13_205
*376 FILLER_0_13_217
*377 FILLER_0_13_223
*378 FILLER_0_13_225
*379 FILLER_0_13_237
*380 FILLER_0_13_249
*381 FILLER_0_13_261
*382 FILLER_0_13_27
*383 FILLER_0_13_273
*384 FILLER_0_13_279
*385 FILLER_0_13_281
*386 FILLER_0_13_293
*387 FILLER_0_13_3
*388 FILLER_0_13_305
*389 FILLER_0_13_317
*390 FILLER_0_13_329
*391 FILLER_0_13_335
*392 FILLER_0_13_337
*393 FILLER_0_13_349
*394 FILLER_0_13_39
*395 FILLER_0_13_51
*396 FILLER_0_13_55
*397 FILLER_0_13_57
*398 FILLER_0_13_69
*399 FILLER_0_13_81
*400 FILLER_0_13_93
*401 FILLER_0_14_109
*402 FILLER_0_14_121
*403 FILLER_0_14_133
*404 FILLER_0_14_139
*405 FILLER_0_14_141
*406 FILLER_0_14_15
*407 FILLER_0_14_153
*408 FILLER_0_14_165
*409 FILLER_0_14_177
*410 FILLER_0_14_189
*411 FILLER_0_14_195
*412 FILLER_0_14_197
*413 FILLER_0_14_209
*414 FILLER_0_14_221
*415 FILLER_0_14_233
*416 FILLER_0_14_245
*417 FILLER_0_14_251
*418 FILLER_0_14_253
*419 FILLER_0_14_265
*420 FILLER_0_14_27
*421 FILLER_0_14_277
*422 FILLER_0_14_289
*423 FILLER_0_14_29
*424 FILLER_0_14_3
*425 FILLER_0_14_301
*426 FILLER_0_14_307
*427 FILLER_0_14_309
*428 FILLER_0_14_321
*429 FILLER_0_14_333
*430 FILLER_0_14_345
*431 FILLER_0_14_41
*432 FILLER_0_14_53
*433 FILLER_0_14_65
*434 FILLER_0_14_77
*435 FILLER_0_14_83
*436 FILLER_0_14_85
*437 FILLER_0_14_97
*438 FILLER_0_15_105
*439 FILLER_0_15_111
*440 FILLER_0_15_113
*441 FILLER_0_15_125
*442 FILLER_0_15_137
*443 FILLER_0_15_149
*444 FILLER_0_15_15
*445 FILLER_0_15_161
*446 FILLER_0_15_167
*447 FILLER_0_15_169
*448 FILLER_0_15_181
*449 FILLER_0_15_193
*450 FILLER_0_15_205
*451 FILLER_0_15_217
*452 FILLER_0_15_223
*453 FILLER_0_15_225
*454 FILLER_0_15_237
*455 FILLER_0_15_249
*456 FILLER_0_15_261
*457 FILLER_0_15_27
*458 FILLER_0_15_273
*459 FILLER_0_15_279
*460 FILLER_0_15_281
*461 FILLER_0_15_293
*462 FILLER_0_15_3
*463 FILLER_0_15_305
*464 FILLER_0_15_317
*465 FILLER_0_15_329
*466 FILLER_0_15_335
*467 FILLER_0_15_337
*468 FILLER_0_15_349
*469 FILLER_0_15_39
*470 FILLER_0_15_51
*471 FILLER_0_15_55
*472 FILLER_0_15_57
*473 FILLER_0_15_69
*474 FILLER_0_15_81
*475 FILLER_0_15_93
*476 FILLER_0_16_109
*477 FILLER_0_16_121
*478 FILLER_0_16_133
*479 FILLER_0_16_139
*480 FILLER_0_16_141
*481 FILLER_0_16_15
*482 FILLER_0_16_153
*483 FILLER_0_16_165
*484 FILLER_0_16_177
*485 FILLER_0_16_189
*486 FILLER_0_16_195
*487 FILLER_0_16_197
*488 FILLER_0_16_209
*489 FILLER_0_16_221
*490 FILLER_0_16_233
*491 FILLER_0_16_245
*492 FILLER_0_16_251
*493 FILLER_0_16_253
*494 FILLER_0_16_265
*495 FILLER_0_16_27
*496 FILLER_0_16_277
*497 FILLER_0_16_289
*498 FILLER_0_16_29
*499 FILLER_0_16_3
*500 FILLER_0_16_301
*501 FILLER_0_16_307
*502 FILLER_0_16_309
*503 FILLER_0_16_321
*504 FILLER_0_16_333
*505 FILLER_0_16_345
*506 FILLER_0_16_41
*507 FILLER_0_16_53
*508 FILLER_0_16_65
*509 FILLER_0_16_77
*510 FILLER_0_16_83
*511 FILLER_0_16_85
*512 FILLER_0_16_97
*513 FILLER_0_17_105
*514 FILLER_0_17_111
*515 FILLER_0_17_113
*516 FILLER_0_17_125
*517 FILLER_0_17_137
*518 FILLER_0_17_149
*519 FILLER_0_17_15
*520 FILLER_0_17_161
*521 FILLER_0_17_167
*522 FILLER_0_17_169
*523 FILLER_0_17_181
*524 FILLER_0_17_193
*525 FILLER_0_17_205
*526 FILLER_0_17_217
*527 FILLER_0_17_223
*528 FILLER_0_17_225
*529 FILLER_0_17_237
*530 FILLER_0_17_249
*531 FILLER_0_17_261
*532 FILLER_0_17_27
*533 FILLER_0_17_273
*534 FILLER_0_17_279
*535 FILLER_0_17_281
*536 FILLER_0_17_293
*537 FILLER_0_17_3
*538 FILLER_0_17_305
*539 FILLER_0_17_317
*540 FILLER_0_17_329
*541 FILLER_0_17_335
*542 FILLER_0_17_337
*543 FILLER_0_17_349
*544 FILLER_0_17_39
*545 FILLER_0_17_51
*546 FILLER_0_17_55
*547 FILLER_0_17_57
*548 FILLER_0_17_69
*549 FILLER_0_17_81
*550 FILLER_0_17_93
*551 FILLER_0_18_109
*552 FILLER_0_18_121
*553 FILLER_0_18_133
*554 FILLER_0_18_139
*555 FILLER_0_18_141
*556 FILLER_0_18_15
*557 FILLER_0_18_153
*558 FILLER_0_18_165
*559 FILLER_0_18_177
*560 FILLER_0_18_189
*561 FILLER_0_18_195
*562 FILLER_0_18_197
*563 FILLER_0_18_209
*564 FILLER_0_18_221
*565 FILLER_0_18_233
*566 FILLER_0_18_245
*567 FILLER_0_18_251
*568 FILLER_0_18_253
*569 FILLER_0_18_265
*570 FILLER_0_18_27
*571 FILLER_0_18_277
*572 FILLER_0_18_289
*573 FILLER_0_18_29
*574 FILLER_0_18_3
*575 FILLER_0_18_301
*576 FILLER_0_18_307
*577 FILLER_0_18_309
*578 FILLER_0_18_321
*579 FILLER_0_18_333
*580 FILLER_0_18_345
*581 FILLER_0_18_41
*582 FILLER_0_18_53
*583 FILLER_0_18_65
*584 FILLER_0_18_77
*585 FILLER_0_18_83
*586 FILLER_0_18_85
*587 FILLER_0_18_97
*588 FILLER_0_19_105
*589 FILLER_0_19_111
*590 FILLER_0_19_113
*591 FILLER_0_19_125
*592 FILLER_0_19_137
*593 FILLER_0_19_149
*594 FILLER_0_19_15
*595 FILLER_0_19_161
*596 FILLER_0_19_167
*597 FILLER_0_19_169
*598 FILLER_0_19_181
*599 FILLER_0_19_193
*600 FILLER_0_19_205
*601 FILLER_0_19_217
*602 FILLER_0_19_223
*603 FILLER_0_19_225
*604 FILLER_0_19_237
*605 FILLER_0_19_249
*606 FILLER_0_19_261
*607 FILLER_0_19_27
*608 FILLER_0_19_273
*609 FILLER_0_19_279
*610 FILLER_0_19_281
*611 FILLER_0_19_293
*612 FILLER_0_19_3
*613 FILLER_0_19_305
*614 FILLER_0_19_317
*615 FILLER_0_19_329
*616 FILLER_0_19_335
*617 FILLER_0_19_337
*618 FILLER_0_19_349
*619 FILLER_0_19_39
*620 FILLER_0_19_51
*621 FILLER_0_19_55
*622 FILLER_0_19_57
*623 FILLER_0_19_69
*624 FILLER_0_19_81
*625 FILLER_0_19_93
*626 FILLER_0_1_105
*627 FILLER_0_1_111
*628 FILLER_0_1_113
*629 FILLER_0_1_125
*630 FILLER_0_1_137
*631 FILLER_0_1_149
*632 FILLER_0_1_15
*633 FILLER_0_1_161
*634 FILLER_0_1_167
*635 FILLER_0_1_169
*636 FILLER_0_1_181
*637 FILLER_0_1_193
*638 FILLER_0_1_205
*639 FILLER_0_1_217
*640 FILLER_0_1_223
*641 FILLER_0_1_225
*642 FILLER_0_1_237
*643 FILLER_0_1_249
*644 FILLER_0_1_261
*645 FILLER_0_1_27
*646 FILLER_0_1_273
*647 FILLER_0_1_279
*648 FILLER_0_1_281
*649 FILLER_0_1_293
*650 FILLER_0_1_3
*651 FILLER_0_1_305
*652 FILLER_0_1_317
*653 FILLER_0_1_329
*654 FILLER_0_1_335
*655 FILLER_0_1_337
*656 FILLER_0_1_349
*657 FILLER_0_1_39
*658 FILLER_0_1_51
*659 FILLER_0_1_55
*660 FILLER_0_1_57
*661 FILLER_0_1_69
*662 FILLER_0_1_81
*663 FILLER_0_1_93
*664 FILLER_0_20_109
*665 FILLER_0_20_121
*666 FILLER_0_20_133
*667 FILLER_0_20_139
*668 FILLER_0_20_141
*669 FILLER_0_20_15
*670 FILLER_0_20_153
*671 FILLER_0_20_165
*672 FILLER_0_20_177
*673 FILLER_0_20_189
*674 FILLER_0_20_195
*675 FILLER_0_20_197
*676 FILLER_0_20_209
*677 FILLER_0_20_221
*678 FILLER_0_20_233
*679 FILLER_0_20_245
*680 FILLER_0_20_251
*681 FILLER_0_20_253
*682 FILLER_0_20_265
*683 FILLER_0_20_27
*684 FILLER_0_20_277
*685 FILLER_0_20_289
*686 FILLER_0_20_29
*687 FILLER_0_20_3
*688 FILLER_0_20_301
*689 FILLER_0_20_307
*690 FILLER_0_20_309
*691 FILLER_0_20_321
*692 FILLER_0_20_333
*693 FILLER_0_20_345
*694 FILLER_0_20_41
*695 FILLER_0_20_53
*696 FILLER_0_20_65
*697 FILLER_0_20_77
*698 FILLER_0_20_83
*699 FILLER_0_20_85
*700 FILLER_0_20_97
*701 FILLER_0_21_105
*702 FILLER_0_21_111
*703 FILLER_0_21_113
*704 FILLER_0_21_125
*705 FILLER_0_21_137
*706 FILLER_0_21_149
*707 FILLER_0_21_15
*708 FILLER_0_21_161
*709 FILLER_0_21_167
*710 FILLER_0_21_169
*711 FILLER_0_21_181
*712 FILLER_0_21_193
*713 FILLER_0_21_205
*714 FILLER_0_21_217
*715 FILLER_0_21_223
*716 FILLER_0_21_225
*717 FILLER_0_21_237
*718 FILLER_0_21_249
*719 FILLER_0_21_261
*720 FILLER_0_21_27
*721 FILLER_0_21_273
*722 FILLER_0_21_279
*723 FILLER_0_21_281
*724 FILLER_0_21_293
*725 FILLER_0_21_3
*726 FILLER_0_21_305
*727 FILLER_0_21_317
*728 FILLER_0_21_329
*729 FILLER_0_21_335
*730 FILLER_0_21_337
*731 FILLER_0_21_349
*732 FILLER_0_21_39
*733 FILLER_0_21_51
*734 FILLER_0_21_55
*735 FILLER_0_21_57
*736 FILLER_0_21_69
*737 FILLER_0_21_81
*738 FILLER_0_21_93
*739 FILLER_0_22_109
*740 FILLER_0_22_121
*741 FILLER_0_22_133
*742 FILLER_0_22_139
*743 FILLER_0_22_141
*744 FILLER_0_22_15
*745 FILLER_0_22_153
*746 FILLER_0_22_165
*747 FILLER_0_22_177
*748 FILLER_0_22_189
*749 FILLER_0_22_195
*750 FILLER_0_22_197
*751 FILLER_0_22_209
*752 FILLER_0_22_221
*753 FILLER_0_22_233
*754 FILLER_0_22_245
*755 FILLER_0_22_251
*756 FILLER_0_22_253
*757 FILLER_0_22_265
*758 FILLER_0_22_27
*759 FILLER_0_22_277
*760 FILLER_0_22_289
*761 FILLER_0_22_29
*762 FILLER_0_22_3
*763 FILLER_0_22_301
*764 FILLER_0_22_307
*765 FILLER_0_22_309
*766 FILLER_0_22_321
*767 FILLER_0_22_333
*768 FILLER_0_22_345
*769 FILLER_0_22_41
*770 FILLER_0_22_53
*771 FILLER_0_22_65
*772 FILLER_0_22_77
*773 FILLER_0_22_83
*774 FILLER_0_22_85
*775 FILLER_0_22_97
*776 FILLER_0_23_105
*777 FILLER_0_23_111
*778 FILLER_0_23_113
*779 FILLER_0_23_125
*780 FILLER_0_23_137
*781 FILLER_0_23_149
*782 FILLER_0_23_15
*783 FILLER_0_23_161
*784 FILLER_0_23_167
*785 FILLER_0_23_169
*786 FILLER_0_23_181
*787 FILLER_0_23_193
*788 FILLER_0_23_205
*789 FILLER_0_23_217
*790 FILLER_0_23_223
*791 FILLER_0_23_225
*792 FILLER_0_23_237
*793 FILLER_0_23_249
*794 FILLER_0_23_261
*795 FILLER_0_23_27
*796 FILLER_0_23_273
*797 FILLER_0_23_279
*798 FILLER_0_23_281
*799 FILLER_0_23_293
*800 FILLER_0_23_3
*801 FILLER_0_23_305
*802 FILLER_0_23_317
*803 FILLER_0_23_329
*804 FILLER_0_23_335
*805 FILLER_0_23_337
*806 FILLER_0_23_349
*807 FILLER_0_23_39
*808 FILLER_0_23_51
*809 FILLER_0_23_55
*810 FILLER_0_23_57
*811 FILLER_0_23_69
*812 FILLER_0_23_81
*813 FILLER_0_23_93
*814 FILLER_0_24_109
*815 FILLER_0_24_121
*816 FILLER_0_24_133
*817 FILLER_0_24_139
*818 FILLER_0_24_141
*819 FILLER_0_24_15
*820 FILLER_0_24_153
*821 FILLER_0_24_165
*822 FILLER_0_24_177
*823 FILLER_0_24_189
*824 FILLER_0_24_195
*825 FILLER_0_24_197
*826 FILLER_0_24_209
*827 FILLER_0_24_221
*828 FILLER_0_24_233
*829 FILLER_0_24_245
*830 FILLER_0_24_251
*831 FILLER_0_24_253
*832 FILLER_0_24_265
*833 FILLER_0_24_27
*834 FILLER_0_24_277
*835 FILLER_0_24_289
*836 FILLER_0_24_29
*837 FILLER_0_24_3
*838 FILLER_0_24_301
*839 FILLER_0_24_307
*840 FILLER_0_24_309
*841 FILLER_0_24_321
*842 FILLER_0_24_333
*843 FILLER_0_24_345
*844 FILLER_0_24_41
*845 FILLER_0_24_53
*846 FILLER_0_24_65
*847 FILLER_0_24_77
*848 FILLER_0_24_83
*849 FILLER_0_24_85
*850 FILLER_0_24_97
*851 FILLER_0_25_105
*852 FILLER_0_25_111
*853 FILLER_0_25_113
*854 FILLER_0_25_125
*855 FILLER_0_25_137
*856 FILLER_0_25_149
*857 FILLER_0_25_15
*858 FILLER_0_25_161
*859 FILLER_0_25_167
*860 FILLER_0_25_169
*861 FILLER_0_25_181
*862 FILLER_0_25_193
*863 FILLER_0_25_205
*864 FILLER_0_25_217
*865 FILLER_0_25_223
*866 FILLER_0_25_225
*867 FILLER_0_25_237
*868 FILLER_0_25_249
*869 FILLER_0_25_261
*870 FILLER_0_25_27
*871 FILLER_0_25_273
*872 FILLER_0_25_279
*873 FILLER_0_25_281
*874 FILLER_0_25_293
*875 FILLER_0_25_3
*876 FILLER_0_25_305
*877 FILLER_0_25_317
*878 FILLER_0_25_329
*879 FILLER_0_25_335
*880 FILLER_0_25_337
*881 FILLER_0_25_349
*882 FILLER_0_25_39
*883 FILLER_0_25_51
*884 FILLER_0_25_55
*885 FILLER_0_25_57
*886 FILLER_0_25_69
*887 FILLER_0_25_81
*888 FILLER_0_25_93
*889 FILLER_0_26_109
*890 FILLER_0_26_121
*891 FILLER_0_26_133
*892 FILLER_0_26_139
*893 FILLER_0_26_141
*894 FILLER_0_26_15
*895 FILLER_0_26_153
*896 FILLER_0_26_165
*897 FILLER_0_26_177
*898 FILLER_0_26_189
*899 FILLER_0_26_195
*900 FILLER_0_26_229
*901 FILLER_0_26_238
*902 FILLER_0_26_269
*903 FILLER_0_26_27
*904 FILLER_0_26_281
*905 FILLER_0_26_29
*906 FILLER_0_26_293
*907 FILLER_0_26_3
*908 FILLER_0_26_305
*909 FILLER_0_26_309
*910 FILLER_0_26_321
*911 FILLER_0_26_333
*912 FILLER_0_26_345
*913 FILLER_0_26_41
*914 FILLER_0_26_53
*915 FILLER_0_26_65
*916 FILLER_0_26_77
*917 FILLER_0_26_83
*918 FILLER_0_26_85
*919 FILLER_0_26_97
*920 FILLER_0_27_105
*921 FILLER_0_27_111
*922 FILLER_0_27_113
*923 FILLER_0_27_125
*924 FILLER_0_27_137
*925 FILLER_0_27_145
*926 FILLER_0_27_15
*927 FILLER_0_27_165
*928 FILLER_0_27_169
*929 FILLER_0_27_186
*930 FILLER_0_27_198
*931 FILLER_0_27_206
*932 FILLER_0_27_217
*933 FILLER_0_27_223
*934 FILLER_0_27_235
*935 FILLER_0_27_251
*936 FILLER_0_27_263
*937 FILLER_0_27_27
*938 FILLER_0_27_275
*939 FILLER_0_27_279
*940 FILLER_0_27_281
*941 FILLER_0_27_293
*942 FILLER_0_27_3
*943 FILLER_0_27_305
*944 FILLER_0_27_317
*945 FILLER_0_27_329
*946 FILLER_0_27_335
*947 FILLER_0_27_337
*948 FILLER_0_27_349
*949 FILLER_0_27_39
*950 FILLER_0_27_51
*951 FILLER_0_27_55
*952 FILLER_0_27_57
*953 FILLER_0_27_69
*954 FILLER_0_27_81
*955 FILLER_0_27_93
*956 FILLER_0_28_109
*957 FILLER_0_28_121
*958 FILLER_0_28_133
*959 FILLER_0_28_139
*960 FILLER_0_28_141
*961 FILLER_0_28_15
*962 FILLER_0_28_159
*963 FILLER_0_28_163
*964 FILLER_0_28_189
*965 FILLER_0_28_205
*966 FILLER_0_28_209
*967 FILLER_0_28_235
*968 FILLER_0_28_250
*969 FILLER_0_28_253
*970 FILLER_0_28_261
*971 FILLER_0_28_267
*972 FILLER_0_28_27
*973 FILLER_0_28_287
*974 FILLER_0_28_29
*975 FILLER_0_28_299
*976 FILLER_0_28_3
*977 FILLER_0_28_307
*978 FILLER_0_28_309
*979 FILLER_0_28_321
*980 FILLER_0_28_333
*981 FILLER_0_28_345
*982 FILLER_0_28_41
*983 FILLER_0_28_53
*984 FILLER_0_28_65
*985 FILLER_0_28_77
*986 FILLER_0_28_83
*987 FILLER_0_28_85
*988 FILLER_0_28_97
*989 FILLER_0_29_105
*990 FILLER_0_29_111
*991 FILLER_0_29_113
*992 FILLER_0_29_125
*993 FILLER_0_29_137
*994 FILLER_0_29_145
*995 FILLER_0_29_15
*996 FILLER_0_29_150
*997 FILLER_0_29_162
*998 FILLER_0_29_169
*999 FILLER_0_29_213
*1000 FILLER_0_29_222
*1001 FILLER_0_29_225
*1002 FILLER_0_29_267
*1003 FILLER_0_29_27
*1004 FILLER_0_29_273
*1005 FILLER_0_29_3
*1006 FILLER_0_29_309
*1007 FILLER_0_29_321
*1008 FILLER_0_29_333
*1009 FILLER_0_29_337
*1010 FILLER_0_29_349
*1011 FILLER_0_29_39
*1012 FILLER_0_29_51
*1013 FILLER_0_29_55
*1014 FILLER_0_29_57
*1015 FILLER_0_29_69
*1016 FILLER_0_29_81
*1017 FILLER_0_29_93
*1018 FILLER_0_2_109
*1019 FILLER_0_2_121
*1020 FILLER_0_2_133
*1021 FILLER_0_2_139
*1022 FILLER_0_2_141
*1023 FILLER_0_2_15
*1024 FILLER_0_2_153
*1025 FILLER_0_2_165
*1026 FILLER_0_2_177
*1027 FILLER_0_2_189
*1028 FILLER_0_2_195
*1029 FILLER_0_2_197
*1030 FILLER_0_2_209
*1031 FILLER_0_2_221
*1032 FILLER_0_2_233
*1033 FILLER_0_2_245
*1034 FILLER_0_2_251
*1035 FILLER_0_2_253
*1036 FILLER_0_2_265
*1037 FILLER_0_2_27
*1038 FILLER_0_2_277
*1039 FILLER_0_2_289
*1040 FILLER_0_2_29
*1041 FILLER_0_2_3
*1042 FILLER_0_2_301
*1043 FILLER_0_2_307
*1044 FILLER_0_2_309
*1045 FILLER_0_2_321
*1046 FILLER_0_2_333
*1047 FILLER_0_2_345
*1048 FILLER_0_2_41
*1049 FILLER_0_2_53
*1050 FILLER_0_2_65
*1051 FILLER_0_2_77
*1052 FILLER_0_2_83
*1053 FILLER_0_2_85
*1054 FILLER_0_2_97
*1055 FILLER_0_30_109
*1056 FILLER_0_30_121
*1057 FILLER_0_30_133
*1058 FILLER_0_30_139
*1059 FILLER_0_30_141
*1060 FILLER_0_30_15
*1061 FILLER_0_30_161
*1062 FILLER_0_30_172
*1063 FILLER_0_30_184
*1064 FILLER_0_30_197
*1065 FILLER_0_30_210
*1066 FILLER_0_30_222
*1067 FILLER_0_30_234
*1068 FILLER_0_30_250
*1069 FILLER_0_30_253
*1070 FILLER_0_30_27
*1071 FILLER_0_30_278
*1072 FILLER_0_30_29
*1073 FILLER_0_30_290
*1074 FILLER_0_30_3
*1075 FILLER_0_30_302
*1076 FILLER_0_30_317
*1077 FILLER_0_30_329
*1078 FILLER_0_30_341
*1079 FILLER_0_30_349
*1080 FILLER_0_30_41
*1081 FILLER_0_30_53
*1082 FILLER_0_30_65
*1083 FILLER_0_30_77
*1084 FILLER_0_30_83
*1085 FILLER_0_30_85
*1086 FILLER_0_30_97
*1087 FILLER_0_31_105
*1088 FILLER_0_31_111
*1089 FILLER_0_31_113
*1090 FILLER_0_31_125
*1091 FILLER_0_31_137
*1092 FILLER_0_31_145
*1093 FILLER_0_31_149
*1094 FILLER_0_31_15
*1095 FILLER_0_31_161
*1096 FILLER_0_31_166
*1097 FILLER_0_31_177
*1098 FILLER_0_31_196
*1099 FILLER_0_31_204
*1100 FILLER_0_31_212
*1101 FILLER_0_31_241
*1102 FILLER_0_31_250
*1103 FILLER_0_31_269
*1104 FILLER_0_31_27
*1105 FILLER_0_31_278
*1106 FILLER_0_31_3
*1107 FILLER_0_31_301
*1108 FILLER_0_31_322
*1109 FILLER_0_31_334
*1110 FILLER_0_31_337
*1111 FILLER_0_31_349
*1112 FILLER_0_31_39
*1113 FILLER_0_31_51
*1114 FILLER_0_31_55
*1115 FILLER_0_31_57
*1116 FILLER_0_31_69
*1117 FILLER_0_31_81
*1118 FILLER_0_31_93
*1119 FILLER_0_32_109
*1120 FILLER_0_32_121
*1121 FILLER_0_32_133
*1122 FILLER_0_32_139
*1123 FILLER_0_32_15
*1124 FILLER_0_32_157
*1125 FILLER_0_32_176
*1126 FILLER_0_32_184
*1127 FILLER_0_32_197
*1128 FILLER_0_32_201
*1129 FILLER_0_32_209
*1130 FILLER_0_32_221
*1131 FILLER_0_32_227
*1132 FILLER_0_32_248
*1133 FILLER_0_32_27
*1134 FILLER_0_32_274
*1135 FILLER_0_32_286
*1136 FILLER_0_32_29
*1137 FILLER_0_32_3
*1138 FILLER_0_32_303
*1139 FILLER_0_32_307
*1140 FILLER_0_32_309
*1141 FILLER_0_32_313
*1142 FILLER_0_32_325
*1143 FILLER_0_32_337
*1144 FILLER_0_32_349
*1145 FILLER_0_32_41
*1146 FILLER_0_32_53
*1147 FILLER_0_32_65
*1148 FILLER_0_32_77
*1149 FILLER_0_32_83
*1150 FILLER_0_32_85
*1151 FILLER_0_32_97
*1152 FILLER_0_33_105
*1153 FILLER_0_33_111
*1154 FILLER_0_33_113
*1155 FILLER_0_33_125
*1156 FILLER_0_33_137
*1157 FILLER_0_33_149
*1158 FILLER_0_33_15
*1159 FILLER_0_33_161
*1160 FILLER_0_33_167
*1161 FILLER_0_33_169
*1162 FILLER_0_33_177
*1163 FILLER_0_33_183
*1164 FILLER_0_33_195
*1165 FILLER_0_33_221
*1166 FILLER_0_33_229
*1167 FILLER_0_33_251
*1168 FILLER_0_33_263
*1169 FILLER_0_33_27
*1170 FILLER_0_33_271
*1171 FILLER_0_33_278
*1172 FILLER_0_33_293
*1173 FILLER_0_33_3
*1174 FILLER_0_33_308
*1175 FILLER_0_33_328
*1176 FILLER_0_33_337
*1177 FILLER_0_33_349
*1178 FILLER_0_33_39
*1179 FILLER_0_33_51
*1180 FILLER_0_33_55
*1181 FILLER_0_33_57
*1182 FILLER_0_33_69
*1183 FILLER_0_33_81
*1184 FILLER_0_33_93
*1185 FILLER_0_34_109
*1186 FILLER_0_34_121
*1187 FILLER_0_34_133
*1188 FILLER_0_34_139
*1189 FILLER_0_34_141
*1190 FILLER_0_34_15
*1191 FILLER_0_34_153
*1192 FILLER_0_34_179
*1193 FILLER_0_34_189
*1194 FILLER_0_34_221
*1195 FILLER_0_34_233
*1196 FILLER_0_34_247
*1197 FILLER_0_34_251
*1198 FILLER_0_34_253
*1199 FILLER_0_34_260
*1200 FILLER_0_34_268
*1201 FILLER_0_34_27
*1202 FILLER_0_34_281
*1203 FILLER_0_34_289
*1204 FILLER_0_34_29
*1205 FILLER_0_34_3
*1206 FILLER_0_34_305
*1207 FILLER_0_34_309
*1208 FILLER_0_34_329
*1209 FILLER_0_34_341
*1210 FILLER_0_34_349
*1211 FILLER_0_34_41
*1212 FILLER_0_34_53
*1213 FILLER_0_34_65
*1214 FILLER_0_34_77
*1215 FILLER_0_34_83
*1216 FILLER_0_34_85
*1217 FILLER_0_34_97
*1218 FILLER_0_35_105
*1219 FILLER_0_35_111
*1220 FILLER_0_35_113
*1221 FILLER_0_35_125
*1222 FILLER_0_35_137
*1223 FILLER_0_35_149
*1224 FILLER_0_35_15
*1225 FILLER_0_35_161
*1226 FILLER_0_35_167
*1227 FILLER_0_35_169
*1228 FILLER_0_35_173
*1229 FILLER_0_35_182
*1230 FILLER_0_35_194
*1231 FILLER_0_35_215
*1232 FILLER_0_35_219
*1233 FILLER_0_35_235
*1234 FILLER_0_35_245
*1235 FILLER_0_35_252
*1236 FILLER_0_35_27
*1237 FILLER_0_35_271
*1238 FILLER_0_35_279
*1239 FILLER_0_35_288
*1240 FILLER_0_35_296
*1241 FILLER_0_35_3
*1242 FILLER_0_35_311
*1243 FILLER_0_35_323
*1244 FILLER_0_35_335
*1245 FILLER_0_35_337
*1246 FILLER_0_35_349
*1247 FILLER_0_35_39
*1248 FILLER_0_35_51
*1249 FILLER_0_35_55
*1250 FILLER_0_35_57
*1251 FILLER_0_35_69
*1252 FILLER_0_35_81
*1253 FILLER_0_35_93
*1254 FILLER_0_36_109
*1255 FILLER_0_36_121
*1256 FILLER_0_36_133
*1257 FILLER_0_36_139
*1258 FILLER_0_36_141
*1259 FILLER_0_36_149
*1260 FILLER_0_36_15
*1261 FILLER_0_36_191
*1262 FILLER_0_36_195
*1263 FILLER_0_36_208
*1264 FILLER_0_36_220
*1265 FILLER_0_36_226
*1266 FILLER_0_36_234
*1267 FILLER_0_36_246
*1268 FILLER_0_36_257
*1269 FILLER_0_36_268
*1270 FILLER_0_36_27
*1271 FILLER_0_36_286
*1272 FILLER_0_36_29
*1273 FILLER_0_36_292
*1274 FILLER_0_36_3
*1275 FILLER_0_36_306
*1276 FILLER_0_36_309
*1277 FILLER_0_36_321
*1278 FILLER_0_36_333
*1279 FILLER_0_36_345
*1280 FILLER_0_36_41
*1281 FILLER_0_36_53
*1282 FILLER_0_36_65
*1283 FILLER_0_36_77
*1284 FILLER_0_36_83
*1285 FILLER_0_36_85
*1286 FILLER_0_36_97
*1287 FILLER_0_37_105
*1288 FILLER_0_37_111
*1289 FILLER_0_37_113
*1290 FILLER_0_37_125
*1291 FILLER_0_37_137
*1292 FILLER_0_37_149
*1293 FILLER_0_37_15
*1294 FILLER_0_37_177
*1295 FILLER_0_37_189
*1296 FILLER_0_37_202
*1297 FILLER_0_37_220
*1298 FILLER_0_37_243
*1299 FILLER_0_37_263
*1300 FILLER_0_37_27
*1301 FILLER_0_37_271
*1302 FILLER_0_37_281
*1303 FILLER_0_37_291
*1304 FILLER_0_37_3
*1305 FILLER_0_37_303
*1306 FILLER_0_37_315
*1307 FILLER_0_37_327
*1308 FILLER_0_37_335
*1309 FILLER_0_37_337
*1310 FILLER_0_37_349
*1311 FILLER_0_37_39
*1312 FILLER_0_37_51
*1313 FILLER_0_37_55
*1314 FILLER_0_37_57
*1315 FILLER_0_37_69
*1316 FILLER_0_37_81
*1317 FILLER_0_37_93
*1318 FILLER_0_38_104
*1319 FILLER_0_38_110
*1320 FILLER_0_38_116
*1321 FILLER_0_38_122
*1322 FILLER_0_38_128
*1323 FILLER_0_38_134
*1324 FILLER_0_38_141
*1325 FILLER_0_38_146
*1326 FILLER_0_38_15
*1327 FILLER_0_38_152
*1328 FILLER_0_38_158
*1329 FILLER_0_38_166
*1330 FILLER_0_38_183
*1331 FILLER_0_38_194
*1332 FILLER_0_38_204
*1333 FILLER_0_38_222
*1334 FILLER_0_38_225
*1335 FILLER_0_38_231
*1336 FILLER_0_38_235
*1337 FILLER_0_38_241
*1338 FILLER_0_38_250
*1339 FILLER_0_38_27
*1340 FILLER_0_38_277
*1341 FILLER_0_38_29
*1342 FILLER_0_38_3
*1343 FILLER_0_38_300
*1344 FILLER_0_38_304
*1345 FILLER_0_38_309
*1346 FILLER_0_38_321
*1347 FILLER_0_38_333
*1348 FILLER_0_38_337
*1349 FILLER_0_38_349
*1350 FILLER_0_38_41
*1351 FILLER_0_38_53
*1352 FILLER_0_38_57
*1353 FILLER_0_38_68
*1354 FILLER_0_38_74
*1355 FILLER_0_38_80
*1356 FILLER_0_38_88
*1357 FILLER_0_38_92
*1358 FILLER_0_38_98
*1359 FILLER_0_3_105
*1360 FILLER_0_3_111
*1361 FILLER_0_3_113
*1362 FILLER_0_3_125
*1363 FILLER_0_3_137
*1364 FILLER_0_3_149
*1365 FILLER_0_3_15
*1366 FILLER_0_3_161
*1367 FILLER_0_3_167
*1368 FILLER_0_3_169
*1369 FILLER_0_3_181
*1370 FILLER_0_3_193
*1371 FILLER_0_3_205
*1372 FILLER_0_3_217
*1373 FILLER_0_3_223
*1374 FILLER_0_3_225
*1375 FILLER_0_3_237
*1376 FILLER_0_3_249
*1377 FILLER_0_3_261
*1378 FILLER_0_3_27
*1379 FILLER_0_3_273
*1380 FILLER_0_3_279
*1381 FILLER_0_3_281
*1382 FILLER_0_3_293
*1383 FILLER_0_3_3
*1384 FILLER_0_3_305
*1385 FILLER_0_3_317
*1386 FILLER_0_3_329
*1387 FILLER_0_3_335
*1388 FILLER_0_3_337
*1389 FILLER_0_3_349
*1390 FILLER_0_3_39
*1391 FILLER_0_3_51
*1392 FILLER_0_3_55
*1393 FILLER_0_3_57
*1394 FILLER_0_3_69
*1395 FILLER_0_3_81
*1396 FILLER_0_3_93
*1397 FILLER_0_4_109
*1398 FILLER_0_4_121
*1399 FILLER_0_4_133
*1400 FILLER_0_4_139
*1401 FILLER_0_4_141
*1402 FILLER_0_4_15
*1403 FILLER_0_4_153
*1404 FILLER_0_4_165
*1405 FILLER_0_4_177
*1406 FILLER_0_4_189
*1407 FILLER_0_4_195
*1408 FILLER_0_4_197
*1409 FILLER_0_4_209
*1410 FILLER_0_4_221
*1411 FILLER_0_4_233
*1412 FILLER_0_4_245
*1413 FILLER_0_4_251
*1414 FILLER_0_4_253
*1415 FILLER_0_4_265
*1416 FILLER_0_4_27
*1417 FILLER_0_4_277
*1418 FILLER_0_4_289
*1419 FILLER_0_4_29
*1420 FILLER_0_4_3
*1421 FILLER_0_4_301
*1422 FILLER_0_4_307
*1423 FILLER_0_4_309
*1424 FILLER_0_4_321
*1425 FILLER_0_4_333
*1426 FILLER_0_4_345
*1427 FILLER_0_4_41
*1428 FILLER_0_4_53
*1429 FILLER_0_4_65
*1430 FILLER_0_4_77
*1431 FILLER_0_4_83
*1432 FILLER_0_4_85
*1433 FILLER_0_4_97
*1434 FILLER_0_5_105
*1435 FILLER_0_5_111
*1436 FILLER_0_5_113
*1437 FILLER_0_5_125
*1438 FILLER_0_5_137
*1439 FILLER_0_5_149
*1440 FILLER_0_5_15
*1441 FILLER_0_5_161
*1442 FILLER_0_5_167
*1443 FILLER_0_5_169
*1444 FILLER_0_5_181
*1445 FILLER_0_5_193
*1446 FILLER_0_5_205
*1447 FILLER_0_5_217
*1448 FILLER_0_5_223
*1449 FILLER_0_5_225
*1450 FILLER_0_5_237
*1451 FILLER_0_5_249
*1452 FILLER_0_5_261
*1453 FILLER_0_5_27
*1454 FILLER_0_5_273
*1455 FILLER_0_5_279
*1456 FILLER_0_5_281
*1457 FILLER_0_5_293
*1458 FILLER_0_5_3
*1459 FILLER_0_5_305
*1460 FILLER_0_5_317
*1461 FILLER_0_5_329
*1462 FILLER_0_5_335
*1463 FILLER_0_5_337
*1464 FILLER_0_5_349
*1465 FILLER_0_5_39
*1466 FILLER_0_5_51
*1467 FILLER_0_5_55
*1468 FILLER_0_5_57
*1469 FILLER_0_5_69
*1470 FILLER_0_5_81
*1471 FILLER_0_5_93
*1472 FILLER_0_6_109
*1473 FILLER_0_6_121
*1474 FILLER_0_6_133
*1475 FILLER_0_6_139
*1476 FILLER_0_6_141
*1477 FILLER_0_6_15
*1478 FILLER_0_6_153
*1479 FILLER_0_6_165
*1480 FILLER_0_6_177
*1481 FILLER_0_6_189
*1482 FILLER_0_6_195
*1483 FILLER_0_6_197
*1484 FILLER_0_6_209
*1485 FILLER_0_6_221
*1486 FILLER_0_6_233
*1487 FILLER_0_6_245
*1488 FILLER_0_6_251
*1489 FILLER_0_6_253
*1490 FILLER_0_6_265
*1491 FILLER_0_6_27
*1492 FILLER_0_6_277
*1493 FILLER_0_6_289
*1494 FILLER_0_6_29
*1495 FILLER_0_6_3
*1496 FILLER_0_6_301
*1497 FILLER_0_6_307
*1498 FILLER_0_6_309
*1499 FILLER_0_6_321
*1500 FILLER_0_6_333
*1501 FILLER_0_6_345
*1502 FILLER_0_6_41
*1503 FILLER_0_6_53