*SPEF "ieee 1481-1999"
*DESIGN "tt_um_top_mole99"
*DATE "11:11:11 Fri 11 11, 1111"
*VENDOR "OpenRCX"
*PROGRAM "Parallel Extraction"
*VERSION "1.0"
*DESIGN_FLOW "NAME_SCOPE LOCAL" "PIN_CAP NONE"
*DIVIDER /
*DELIMITER :
*BUS_DELIMITER []
*T_UNIT 1 NS
*C_UNIT 1 PF
*R_UNIT 1 OHM
*L_UNIT 1 HENRY

*NAME_MAP
*3 clk
*4 ena
*5 rst_n
*6 ui_in[0]
*7 ui_in[1]
*8 ui_in[2]
*9 ui_in[3]
*10 ui_in[4]
*11 ui_in[5]
*12 ui_in[6]
*13 ui_in[7]
*14 uio_in[0]
*15 uio_in[1]
*16 uio_in[2]
*17 uio_in[3]
*18 uio_in[4]
*19 uio_in[5]
*20 uio_in[6]
*21 uio_in[7]
*22 net36
*23 net37
*24 net46
*25 net38
*26 net47
*27 net48
*28 net39
*29 net40
*30 net41
*31 net42
*32 uio_out[2]
*33 net43
*34 uio_out[4]
*35 uio_out[5]
*36 net44
*37 net45
*38 uo_out[0]
*39 uo_out[1]
*40 uo_out[2]
*41 uo_out[3]
*42 uo_out[4]
*43 uo_out[5]
*44 uo_out[6]
*45 uo_out[7]
*46 _0000_
*47 _0001_
*48 _0002_
*49 _0003_
*50 _0004_
*51 _0005_
*52 _0006_
*53 _0007_
*54 _0008_
*55 _0009_
*56 _0010_
*57 _0011_
*58 _0012_
*59 _0013_
*60 _0014_
*61 _0015_
*62 _0016_
*63 _0017_
*64 _0018_
*65 _0019_
*66 _0020_
*67 _0021_
*68 _0022_
*69 _0023_
*70 _0024_
*71 _0025_
*72 _0026_
*73 _0027_
*74 _0028_
*75 _0029_
*76 _0030_
*77 _0031_
*78 _0032_
*79 _0033_
*80 _0034_
*81 _0035_
*82 _0036_
*83 _0037_
*84 _0038_
*85 _0039_
*86 _0040_
*87 _0041_
*88 _0042_
*89 _0043_
*90 _0044_
*91 _0045_
*92 _0046_
*93 _0047_
*94 _0048_
*95 _0049_
*96 _0050_
*97 _0051_
*98 _0052_
*99 _0053_
*100 _0054_
*101 _0055_
*102 _0056_
*103 _0057_
*104 _0058_
*105 _0059_
*106 _0060_
*107 _0061_
*108 _0062_
*109 _0063_
*110 _0064_
*111 _0065_
*112 _0066_
*113 _0067_
*114 _0068_
*115 _0069_
*116 _0070_
*117 _0071_
*118 _0072_
*119 _0073_
*120 _0074_
*121 _0075_
*122 _0076_
*123 _0077_
*124 _0078_
*125 _0079_
*126 _0080_
*127 _0081_
*128 _0082_
*129 _0083_
*130 _0084_
*131 _0085_
*132 _0086_
*133 _0087_
*134 _0088_
*135 _0089_
*136 _0090_
*137 _0091_
*138 _0092_
*139 _0093_
*140 _0094_
*141 _0095_
*142 _0096_
*143 _0097_
*144 _0098_
*145 _0099_
*146 _0100_
*147 _0101_
*148 _0102_
*149 _0103_
*150 _0104_
*151 _0105_
*152 _0106_
*153 _0107_
*154 _0108_
*155 _0109_
*156 _0110_
*157 _0111_
*158 _0112_
*159 _0113_
*160 _0114_
*161 _0115_
*162 _0116_
*163 _0117_
*164 _0118_
*165 _0119_
*166 _0120_
*167 _0121_
*168 _0122_
*169 _0123_
*170 _0124_
*171 _0125_
*172 _0126_
*173 _0127_
*174 _0128_
*175 _0129_
*176 _0130_
*177 _0131_
*178 _0132_
*179 _0133_
*180 _0134_
*181 _0135_
*182 _0136_
*183 _0137_
*184 _0138_
*185 _0139_
*186 _0140_
*187 _0141_
*188 _0142_
*189 _0143_
*190 _0144_
*191 _0145_
*192 _0146_
*193 _0147_
*194 _0148_
*195 _0149_
*196 _0150_
*197 _0151_
*198 _0152_
*199 _0153_
*200 _0154_
*201 _0155_
*202 _0156_
*203 _0157_
*204 _0158_
*205 _0159_
*206 _0160_
*207 _0161_
*208 _0162_
*209 _0163_
*210 _0164_
*211 _0165_
*212 _0166_
*213 _0167_
*214 _0168_
*215 _0169_
*216 _0170_
*217 _0171_
*218 _0172_
*219 _0173_
*220 _0174_
*221 _0175_
*222 _0176_
*223 _0177_
*224 _0178_
*225 _0179_
*226 _0180_
*227 _0181_
*228 _0182_
*229 _0183_
*230 _0184_
*231 _0185_
*232 _0186_
*233 _0187_
*234 _0188_
*235 _0189_
*236 _0190_
*237 _0191_
*238 _0192_
*239 _0193_
*240 _0194_
*241 _0195_
*242 _0196_
*243 _0197_
*244 _0198_
*245 _0199_
*246 _0200_
*247 _0201_
*248 _0202_
*249 _0203_
*250 _0204_
*251 _0205_
*252 _0206_
*253 _0207_
*254 _0208_
*255 _0209_
*256 _0210_
*257 _0211_
*258 _0212_
*259 _0213_
*260 _0214_
*261 _0215_
*262 _0216_
*263 _0217_
*264 _0218_
*265 _0219_
*266 _0220_
*267 _0221_
*268 _0222_
*269 _0223_
*270 _0224_
*271 _0225_
*272 _0226_
*273 _0227_
*274 _0228_
*275 _0229_
*276 _0230_
*277 _0231_
*278 _0232_
*279 _0233_
*280 _0234_
*281 _0235_
*282 _0236_
*283 _0237_
*284 _0238_
*285 _0239_
*286 _0240_
*287 _0241_
*288 _0242_
*289 _0243_
*290 _0244_
*291 _0245_
*292 _0246_
*293 _0247_
*294 _0248_
*295 _0249_
*296 _0250_
*297 _0251_
*298 _0252_
*299 _0253_
*300 _0254_
*301 _0255_
*302 _0256_
*303 _0257_
*304 _0258_
*305 _0259_
*306 _0260_
*307 _0261_
*308 _0262_
*309 _0263_
*310 _0264_
*311 _0265_
*312 _0266_
*313 _0267_
*314 _0268_
*315 _0269_
*316 _0270_
*317 _0271_
*318 _0272_
*319 _0273_
*320 _0274_
*321 _0275_
*322 _0276_
*323 _0277_
*324 _0278_
*325 _0279_
*326 _0280_
*327 _0281_
*328 _0282_
*329 _0283_
*330 _0284_
*331 _0285_
*332 _0286_
*333 _0287_
*334 _0288_
*335 _0289_
*336 _0290_
*337 _0291_
*338 _0292_
*339 _0293_
*340 _0294_
*341 _0295_
*342 _0296_
*343 _0297_
*344 _0298_
*345 _0299_
*346 _0300_
*347 _0301_
*348 _0302_
*349 _0303_
*350 _0304_
*351 _0305_
*352 _0306_
*353 _0307_
*354 _0308_
*355 _0309_
*356 _0310_
*357 _0311_
*358 _0312_
*359 _0313_
*360 _0314_
*361 _0315_
*362 _0316_
*363 _0317_
*364 _0318_
*365 _0319_
*366 _0320_
*367 _0321_
*368 _0322_
*369 _0323_
*370 _0324_
*371 _0325_
*372 _0326_
*373 _0327_
*374 _0328_
*375 _0329_
*376 _0330_
*377 _0331_
*378 _0332_
*379 _0333_
*380 _0334_
*381 _0335_
*382 _0336_
*383 _0337_
*384 _0338_
*385 _0339_
*386 _0340_
*387 _0341_
*388 _0342_
*389 _0343_
*390 _0344_
*391 _0345_
*392 _0346_
*393 _0347_
*394 _0348_
*395 _0349_
*396 _0350_
*397 _0351_
*398 _0352_
*399 _0353_
*400 _0354_
*401 _0355_
*402 _0356_
*403 _0357_
*404 _0358_
*405 _0359_
*406 _0360_
*407 _0361_
*408 _0362_
*409 _0363_
*410 _0364_
*411 _0365_
*412 _0366_
*413 _0367_
*414 _0368_
*415 _0369_
*416 _0370_
*417 _0371_
*418 _0372_
*419 _0373_
*420 _0374_
*421 _0375_
*422 _0376_
*423 _0377_
*424 _0378_
*425 _0379_
*426 _0380_
*427 _0381_
*428 _0382_
*429 _0383_
*430 _0384_
*431 _0385_
*432 _0386_
*433 _0387_
*434 _0388_
*435 _0389_
*436 _0390_
*437 _0391_
*438 _0392_
*439 _0393_
*440 _0394_
*441 _0395_
*442 _0396_
*443 _0397_
*444 _0398_
*445 _0399_
*446 _0400_
*447 _0401_
*448 _0402_
*449 _0403_
*450 _0404_
*451 _0405_
*452 _0406_
*453 _0407_
*454 _0408_
*455 _0409_
*456 _0410_
*457 _0411_
*458 _0412_
*459 _0413_
*460 _0414_
*461 _0415_
*462 _0416_
*463 _0417_
*464 _0418_
*465 _0419_
*466 _0420_
*467 _0421_
*468 _0422_
*469 _0423_
*470 _0424_
*471 _0425_
*472 _0426_
*473 _0427_
*474 _0428_
*475 _0429_
*476 _0430_
*477 _0431_
*478 _0432_
*479 _0433_
*480 _0434_
*481 _0435_
*482 _0436_
*483 _0437_
*484 _0438_
*485 _0439_
*486 _0440_
*487 _0441_
*488 _0442_
*489 _0443_
*490 _0444_
*491 _0445_
*492 _0446_
*493 _0447_
*494 _0448_
*495 _0449_
*496 _0450_
*497 _0451_
*498 _0452_
*499 _0453_
*500 _0454_
*501 _0455_
*502 _0456_
*503 _0457_
*504 _0458_
*505 _0459_
*506 _0460_
*507 _0461_
*508 _0462_
*509 _0463_
*510 _0464_
*511 _0465_
*512 _0466_
*513 _0467_
*514 _0468_
*515 _0469_
*516 _0470_
*517 _0471_
*518 _0472_
*519 _0473_
*520 _0474_
*521 _0475_
*522 _0476_
*523 _0477_
*524 _0478_
*525 _0479_
*526 _0480_
*527 _0481_
*528 _0482_
*529 _0483_
*530 _0484_
*531 _0485_
*532 _0486_
*533 _0487_
*534 _0488_
*535 _0489_
*536 _0490_
*537 _0491_
*538 _0492_
*539 _0493_
*540 _0494_
*541 _0495_
*542 _0496_
*543 _0497_
*544 _0498_
*545 _0499_
*546 _0500_
*547 _0501_
*548 _0502_
*549 _0503_
*550 _0504_
*551 _0505_
*552 _0506_
*553 _0507_
*554 _0508_
*555 _0509_
*556 _0510_
*557 _0511_
*558 _0512_
*559 _0513_
*560 _0514_
*561 _0515_
*562 _0516_
*563 _0517_
*564 _0518_
*565 _0519_
*566 _0520_
*567 _0521_
*568 _0522_
*569 _0523_
*570 _0524_
*571 _0525_
*572 _0526_
*573 _0527_
*574 _0528_
*575 _0529_
*576 _0530_
*577 _0531_
*578 _0532_
*579 _0533_
*580 _0534_
*581 _0535_
*582 _0536_
*583 _0537_
*584 _0538_
*585 _0539_
*586 _0540_
*587 _0541_
*588 _0542_
*589 _0543_
*590 _0544_
*591 _0545_
*592 _0546_
*593 _0547_
*594 _0548_
*595 _0549_
*596 _0550_
*597 _0551_
*598 _0552_
*599 _0553_
*600 _0554_
*601 _0555_
*602 _0556_
*603 _0557_
*604 _0558_
*605 _0559_
*606 _0560_
*607 _0561_
*608 _0562_
*609 _0563_
*610 _0564_
*611 _0565_
*612 _0566_
*613 _0567_
*614 _0568_
*615 _0569_
*616 _0570_
*617 _0571_
*618 _0572_
*619 _0573_
*620 _0574_
*621 _0575_
*622 _0576_
*623 _0577_
*624 _0578_
*625 _0579_
*626 _0580_
*627 _0581_
*628 _0582_
*629 _0583_
*630 _0584_
*631 _0585_
*632 _0586_
*633 _0587_
*634 _0588_
*635 _0589_
*636 _0590_
*637 _0591_
*638 _0592_
*639 _0593_
*640 _0594_
*641 _0595_
*642 _0596_
*643 _0597_
*644 _0598_
*645 _0599_
*646 _0600_
*647 _0601_
*648 _0602_
*649 _0603_
*650 _0604_
*651 _0605_
*652 _0606_
*653 _0607_
*654 _0608_
*655 _0609_
*656 _0610_
*657 _0611_
*658 _0612_
*659 _0613_
*660 _0614_
*661 _0615_
*662 _0616_
*663 _0617_
*664 _0618_
*665 _0619_
*666 _0620_
*667 _0621_
*668 _0622_
*669 _0623_
*670 _0624_
*671 _0625_
*672 _0626_
*673 _0627_
*674 _0628_
*675 _0629_
*676 _0630_
*677 _0631_
*678 _0632_
*679 _0633_
*680 _0634_
*681 _0635_
*682 _0636_
*683 _0637_
*684 _0638_
*685 _0639_
*686 _0640_
*687 _0641_
*688 _0642_
*689 _0643_
*690 _0644_
*691 _0645_
*692 _0646_
*693 _0647_
*694 _0648_
*695 _0649_
*696 _0650_
*697 _0651_
*698 _0652_
*699 _0653_
*700 _0654_
*701 _0655_
*702 _0656_
*703 _0657_
*704 _0658_
*705 _0659_
*706 _0660_
*707 _0661_
*708 _0662_
*709 _0663_
*710 _0664_
*711 _0665_
*712 _0666_
*713 _0667_
*714 _0668_
*715 _0669_
*716 _0670_
*717 _0671_
*718 _0672_
*719 _0673_
*720 _0674_
*721 _0675_
*722 _0676_
*723 _0677_
*724 _0678_
*725 _0679_
*726 _0680_
*727 _0681_
*728 _0682_
*729 _0683_
*730 _0684_
*731 _0685_
*732 _0686_
*733 _0687_
*734 _0688_
*735 _0689_
*736 _0690_
*737 _0691_
*738 _0692_
*739 _0693_
*740 _0694_
*741 _0695_
*742 _0696_
*743 _0697_
*744 _0698_
*745 _0699_
*746 _0700_
*747 _0701_
*748 _0702_
*749 _0703_
*750 _0704_
*751 _0705_
*752 _0706_
*753 _0707_
*754 _0708_
*755 _0709_
*756 _0710_
*757 _0711_
*758 _0712_
*759 _0713_
*760 _0714_
*761 _0715_
*762 _0716_
*763 _0717_
*764 _0718_
*765 _0719_
*766 _0720_
*767 _0721_
*768 _0722_
*769 _0723_
*770 _0724_
*771 _0725_
*772 _0726_
*773 _0727_
*774 _0728_
*775 _0729_
*776 _0730_
*777 _0731_
*778 _0732_
*779 _0733_
*780 _0734_
*781 _0735_
*782 _0736_
*783 _0737_
*784 _0738_
*785 _0739_
*786 _0740_
*787 _0741_
*788 _0742_
*789 _0743_
*790 _0744_
*791 _0745_
*792 _0746_
*793 _0747_
*794 _0748_
*795 _0749_
*796 _0750_
*797 _0751_
*798 _0752_
*799 _0753_
*800 _0754_
*801 _0755_
*802 _0756_
*803 _0757_
*804 _0758_
*805 _0759_
*806 _0760_
*807 _0761_
*808 _0762_
*809 _0763_
*810 _0764_
*811 _0765_
*812 _0766_
*813 _0767_
*814 _0768_
*815 _0769_
*816 _0770_
*817 _0771_
*818 _0772_
*819 _0773_
*820 _0774_
*821 _0775_
*822 _0776_
*823 _0777_
*824 _0778_
*825 _0779_
*826 _0780_
*827 _0781_
*828 _0782_
*829 _0783_
*830 _0784_
*831 _0785_
*832 _0786_
*833 _0787_
*834 _0788_
*835 _0789_
*836 _0790_
*837 _0791_
*838 _0792_
*839 _0793_
*840 _0794_
*841 _0795_
*842 _0796_
*843 _0797_
*844 _0798_
*845 _0799_
*846 _0800_
*847 _0801_
*848 _0802_
*849 _0803_
*850 _0804_
*851 _0805_
*852 _0806_
*853 _0807_
*854 _0808_
*855 _0809_
*856 _0810_
*857 _0811_
*858 _0812_
*859 _0813_
*860 _0814_
*861 _0815_
*862 _0816_
*863 _0817_
*864 _0818_
*865 _0819_
*866 _0820_
*867 _0821_
*868 _0822_
*869 _0823_
*870 _0824_
*871 _0825_
*872 _0826_
*873 _0827_
*874 _0828_
*875 _0829_
*876 _0830_
*877 _0831_
*878 _0832_
*879 _0833_
*880 _0834_
*881 _0835_
*882 _0836_
*883 _0837_
*884 _0838_
*885 _0839_
*886 _0840_
*887 _0841_
*888 _0842_
*889 _0843_
*890 _0844_
*891 _0845_
*892 _0846_
*893 _0847_
*894 _0848_
*895 _0849_
*896 _0850_
*897 _0851_
*898 _0852_
*899 _0853_
*900 _0854_
*901 _0855_
*902 _0856_
*903 _0857_
*904 _0858_
*905 _0859_
*906 _0860_
*907 _0861_
*908 _0862_
*909 _0863_
*910 _0864_
*911 _0865_
*912 _0866_
*913 _0867_
*914 _0868_
*915 _0869_
*916 _0870_
*917 _0871_
*918 _0872_
*919 _0873_
*920 _0874_
*921 _0875_
*922 _0876_
*923 _0877_
*924 _0878_
*925 _0879_
*926 _0880_
*927 _0881_
*928 _0882_
*929 _0883_
*930 _0884_
*931 _0885_
*932 _0886_
*933 _0887_
*934 _0888_
*935 _0889_
*936 _0890_
*937 _0891_
*938 _0892_
*939 _0893_
*940 _0894_
*941 _0895_
*942 _0896_
*943 _0897_
*944 _0898_
*945 _0899_
*946 _0900_
*947 _0901_
*948 _0902_
*949 _0903_
*950 _0904_
*951 _0905_
*952 _0906_
*953 _0907_
*954 _0908_
*955 _0909_
*956 _0910_
*957 _0911_
*958 _0912_
*959 _0913_
*960 _0914_
*961 _0915_
*962 _0916_
*963 _0917_
*964 _0918_
*965 _0919_
*966 _0920_
*967 _0921_
*968 _0922_
*969 _0923_
*970 _0924_
*971 _0925_
*972 _0926_
*973 _0927_
*974 _0928_
*975 _0929_
*976 _0930_
*977 _0931_
*978 _0932_
*979 _0933_
*980 _0934_
*981 _0935_
*982 _0936_
*983 _0937_
*984 _0938_
*985 _0939_
*986 _0940_
*987 _0941_
*988 _0942_
*989 _0943_
*990 _0944_
*991 _0945_
*992 _0946_
*993 _0947_
*994 _0948_
*995 _0949_
*996 _0950_
*997 _0951_
*998 _0952_
*999 _0953_
*1000 _0954_
*1001 clknet_0_clk
*1002 clknet_1_0__leaf_clk
*1003 clknet_1_1__leaf_clk
*1004 clknet_leaf_0_clk
*1005 clknet_leaf_10_clk
*1006 clknet_leaf_11_clk
*1007 clknet_leaf_12_clk
*1008 clknet_leaf_1_clk
*1009 clknet_leaf_2_clk
*1010 clknet_leaf_3_clk
*1011 clknet_leaf_4_clk
*1012 clknet_leaf_5_clk
*1013 clknet_leaf_6_clk
*1014 clknet_leaf_7_clk
*1015 clknet_leaf_8_clk
*1016 clknet_leaf_9_clk
*1017 net1
*1018 net10
*1019 net100
*1020 net101
*1021 net102
*1022 net103
*1023 net104
*1024 net105
*1025 net106
*1026 net107
*1027 net108
*1028 net109
*1029 net11
*1030 net110
*1031 net111
*1032 net112
*1033 net113
*1034 net114
*1035 net115
*1036 net116
*1037 net117
*1038 net118
*1039 net119
*1040 net12
*1041 net120
*1042 net121
*1043 net122
*1044 net123
*1045 net124
*1046 net125
*1047 net126
*1048 net127
*1049 net128
*1050 net129
*1051 net13
*1052 net130
*1053 net131
*1054 net132
*1055 net133
*1056 net134
*1057 net135
*1058 net136
*1059 net137
*1060 net138
*1061 net139
*1062 net14
*1063 net140
*1064 net141
*1065 net142
*1066 net143
*1067 net144
*1068 net145
*1069 net146
*1070 net147
*1071 net148
*1072 net149
*1073 net15
*1074 net150
*1075 net151
*1076 net152
*1077 net153
*1078 net154
*1079 net155
*1080 net156
*1081 net157
*1082 net158
*1083 net159
*1084 net16
*1085 net160
*1086 net161
*1087 net162
*1088 net163
*1089 net164
*1090 net165
*1091 net17
*1092 net18
*1093 net19
*1094 net2
*1095 net20
*1096 net21
*1097 net22
*1098 net23
*1099 net24
*1100 net25
*1101 net26
*1102 net27
*1103 net28
*1104 net29
*1105 net3
*1106 net30
*1107 net31
*1108 net32
*1109 net33
*1110 net34
*1111 net35
*1112 net4
*1113 net49
*1114 net5
*1115 net50
*1116 net51
*1117 net52
*1118 net53
*1119 net54
*1120 net55
*1121 net56
*1122 net57
*1123 net58
*1124 net59
*1125 net6
*1126 net60
*1127 net61
*1128 net62
*1129 net63
*1130 net64
*1131 net65
*1132 net66
*1133 net67
*1134 net68
*1135 net69
*1136 net7
*1137 net70
*1138 net71
*1139 net72
*1140 net73
*1141 net74
*1142 net75
*1143 net76
*1144 net77
*1145 net78
*1146 net79
*1147 net8
*1148 net80
*1149 net81
*1150 net82
*1151 net83
*1152 net84
*1153 net85
*1154 net86
*1155 net87
*1156 net88
*1157 net89
*1158 net9
*1159 net90
*1160 net91
*1161 net92
*1162 net93
*1163 net94
*1164 net95
*1165 net96
*1166 net97
*1167 net98
*1168 net99
*1169 top_inst\.background_inst\.bg_select\[0\]
*1170 top_inst\.background_inst\.bg_select\[1\]
*1171 top_inst\.background_inst\.color1\[0\]
*1172 top_inst\.background_inst\.color1\[1\]
*1173 top_inst\.background_inst\.color1\[2\]
*1174 top_inst\.background_inst\.color1\[3\]
*1175 top_inst\.background_inst\.color1\[4\]
*1176 top_inst\.background_inst\.color1\[5\]
*1177 top_inst\.background_inst\.color2\[0\]
*1178 top_inst\.background_inst\.color2\[1\]
*1179 top_inst\.background_inst\.color2\[2\]
*1180 top_inst\.background_inst\.color2\[3\]
*1181 top_inst\.background_inst\.color2\[4\]
*1182 top_inst\.background_inst\.color2\[5\]
*1183 top_inst\.background_inst\.color3\[0\]
*1184 top_inst\.background_inst\.color3\[1\]
*1185 top_inst\.background_inst\.color3\[2\]
*1186 top_inst\.background_inst\.color3\[3\]
*1187 top_inst\.background_inst\.color3\[4\]
*1188 top_inst\.background_inst\.color3\[5\]
*1189 top_inst\.background_inst\.color4\[0\]
*1190 top_inst\.background_inst\.color4\[1\]
*1191 top_inst\.background_inst\.color4\[2\]
*1192 top_inst\.background_inst\.color4\[3\]
*1193 top_inst\.background_inst\.color4\[4\]
*1194 top_inst\.background_inst\.color4\[5\]
*1195 top_inst\.background_inst\.counter_h\[0\]
*1196 top_inst\.background_inst\.counter_h\[10\]
*1197 top_inst\.background_inst\.counter_h\[11\]
*1198 top_inst\.background_inst\.counter_h\[1\]
*1199 top_inst\.background_inst\.counter_h\[2\]
*1200 top_inst\.background_inst\.counter_h\[3\]
*1201 top_inst\.background_inst\.counter_h\[4\]
*1202 top_inst\.background_inst\.counter_h\[5\]
*1203 top_inst\.background_inst\.counter_h\[6\]
*1204 top_inst\.background_inst\.counter_h\[7\]
*1205 top_inst\.background_inst\.counter_h\[8\]
*1206 top_inst\.background_inst\.counter_h\[9\]
*1207 top_inst\.background_inst\.counter_v\[0\]
*1208 top_inst\.background_inst\.counter_v\[10\]
*1209 top_inst\.background_inst\.counter_v\[1\]
*1210 top_inst\.background_inst\.counter_v\[2\]
*1211 top_inst\.background_inst\.counter_v\[3\]
*1212 top_inst\.background_inst\.counter_v\[4\]
*1213 top_inst\.background_inst\.counter_v\[5\]
*1214 top_inst\.background_inst\.counter_v\[6\]
*1215 top_inst\.background_inst\.counter_v\[7\]
*1216 top_inst\.background_inst\.counter_v\[8\]
*1217 top_inst\.background_inst\.counter_v\[9\]
*1218 top_inst\.background_inst\.cur_time\[0\]
*1219 top_inst\.background_inst\.cur_time\[1\]
*1220 top_inst\.background_inst\.cur_time\[2\]
*1221 top_inst\.background_inst\.cur_time\[3\]
*1222 top_inst\.background_inst\.cur_time\[4\]
*1223 top_inst\.background_inst\.cur_time\[5\]
*1224 top_inst\.background_inst\.cur_time\[6\]
*1225 top_inst\.background_inst\.cur_time\[7\]
*1226 top_inst\.hsync
*1227 top_inst\.inc_1_or_4
*1228 top_inst\.misc\[0\]
*1229 top_inst\.misc\[1\]
*1230 top_inst\.misc\[2\]
*1231 top_inst\.misc\[3\]
*1232 top_inst\.misc\[4\]
*1233 top_inst\.next_frame
*1234 top_inst\.next_vertical
*1235 top_inst\.reset_n
*1236 top_inst\.spi_miso
*1237 top_inst\.spi_mosi_sync
*1238 top_inst\.spi_receiver_inst\.first_data_sprite
*1239 top_inst\.spi_receiver_inst\.spi_cmd\[0\]
*1240 top_inst\.spi_receiver_inst\.spi_cmd\[1\]
*1241 top_inst\.spi_receiver_inst\.spi_cmd\[2\]
*1242 top_inst\.spi_receiver_inst\.spi_cnt\[0\]
*1243 top_inst\.spi_receiver_inst\.spi_cnt\[1\]
*1244 top_inst\.spi_receiver_inst\.spi_cnt\[2\]
*1245 top_inst\.spi_receiver_inst\.spi_cs_sync
*1246 top_inst\.spi_receiver_inst\.spi_mode
*1247 top_inst\.spi_receiver_inst\.spi_sclk_delayed
*1248 top_inst\.spi_receiver_inst\.spi_sclk_sync
*1249 top_inst\.spi_receiver_inst\.sprite_data
*1250 top_inst\.spi_receiver_inst\.synchronizer_spi_cs\.pipe\[0\]
*1251 top_inst\.spi_receiver_inst\.synchronizer_spi_mosi\.pipe\[0\]
*1252 top_inst\.spi_receiver_inst\.synchronizer_spi_sclk\.pipe\[0\]
*1253 top_inst\.sprite_access_inst\.sprite_line\[0\]
*1254 top_inst\.sprite_access_inst\.sprite_line\[10\]
*1255 top_inst\.sprite_access_inst\.sprite_line\[11\]
*1256 top_inst\.sprite_access_inst\.sprite_line\[1\]
*1257 top_inst\.sprite_access_inst\.sprite_line\[2\]
*1258 top_inst\.sprite_access_inst\.sprite_line\[3\]
*1259 top_inst\.sprite_access_inst\.sprite_line\[4\]
*1260 top_inst\.sprite_access_inst\.sprite_line\[5\]
*1261 top_inst\.sprite_access_inst\.sprite_line\[6\]
*1262 top_inst\.sprite_access_inst\.sprite_line\[7\]
*1263 top_inst\.sprite_access_inst\.sprite_line\[8\]
*1264 top_inst\.sprite_access_inst\.sprite_line\[9\]
*1265 top_inst\.sprite_data_inst\.sprite_data\[100\]
*1266 top_inst\.sprite_data_inst\.sprite_data\[101\]
*1267 top_inst\.sprite_data_inst\.sprite_data\[102\]
*1268 top_inst\.sprite_data_inst\.sprite_data\[103\]
*1269 top_inst\.sprite_data_inst\.sprite_data\[104\]
*1270 top_inst\.sprite_data_inst\.sprite_data\[105\]
*1271 top_inst\.sprite_data_inst\.sprite_data\[106\]
*1272 top_inst\.sprite_data_inst\.sprite_data\[107\]
*1273 top_inst\.sprite_data_inst\.sprite_data\[108\]
*1274 top_inst\.sprite_data_inst\.sprite_data\[109\]
*1275 top_inst\.sprite_data_inst\.sprite_data\[10\]
*1276 top_inst\.sprite_data_inst\.sprite_data\[110\]
*1277 top_inst\.sprite_data_inst\.sprite_data\[111\]
*1278 top_inst\.sprite_data_inst\.sprite_data\[112\]
*1279 top_inst\.sprite_data_inst\.sprite_data\[113\]
*1280 top_inst\.sprite_data_inst\.sprite_data\[114\]
*1281 top_inst\.sprite_data_inst\.sprite_data\[115\]
*1282 top_inst\.sprite_data_inst\.sprite_data\[116\]
*1283 top_inst\.sprite_data_inst\.sprite_data\[117\]
*1284 top_inst\.sprite_data_inst\.sprite_data\[118\]
*1285 top_inst\.sprite_data_inst\.sprite_data\[119\]
*1286 top_inst\.sprite_data_inst\.sprite_data\[11\]
*1287 top_inst\.sprite_data_inst\.sprite_data\[120\]
*1288 top_inst\.sprite_data_inst\.sprite_data\[121\]
*1289 top_inst\.sprite_data_inst\.sprite_data\[122\]
*1290 top_inst\.sprite_data_inst\.sprite_data\[123\]
*1291 top_inst\.sprite_data_inst\.sprite_data\[124\]
*1292 top_inst\.sprite_data_inst\.sprite_data\[125\]
*1293 top_inst\.sprite_data_inst\.sprite_data\[126\]
*1294 top_inst\.sprite_data_inst\.sprite_data\[127\]
*1295 top_inst\.sprite_data_inst\.sprite_data\[128\]
*1296 top_inst\.sprite_data_inst\.sprite_data\[129\]
*1297 top_inst\.sprite_data_inst\.sprite_data\[12\]
*1298 top_inst\.sprite_data_inst\.sprite_data\[130\]
*1299 top_inst\.sprite_data_inst\.sprite_data\[131\]
*1300 top_inst\.sprite_data_inst\.sprite_data\[132\]
*1301 top_inst\.sprite_data_inst\.sprite_data\[133\]
*1302 top_inst\.sprite_data_inst\.sprite_data\[134\]
*1303 top_inst\.sprite_data_inst\.sprite_data\[135\]
*1304 top_inst\.sprite_data_inst\.sprite_data\[136\]
*1305 top_inst\.sprite_data_inst\.sprite_data\[137\]
*1306 top_inst\.sprite_data_inst\.sprite_data\[138\]
*1307 top_inst\.sprite_data_inst\.sprite_data\[139\]
*1308 top_inst\.sprite_data_inst\.sprite_data\[13\]
*1309 top_inst\.sprite_data_inst\.sprite_data\[140\]
*1310 top_inst\.sprite_data_inst\.sprite_data\[141\]
*1311 top_inst\.sprite_data_inst\.sprite_data\[142\]
*1312 top_inst\.sprite_data_inst\.sprite_data\[143\]
*1313 top_inst\.sprite_data_inst\.sprite_data\[14\]
*1314 top_inst\.sprite_data_inst\.sprite_data\[15\]
*1315 top_inst\.sprite_data_inst\.sprite_data\[16\]
*1316 top_inst\.sprite_data_inst\.sprite_data\[17\]
*1317 top_inst\.sprite_data_inst\.sprite_data\[18\]
*1318 top_inst\.sprite_data_inst\.sprite_data\[19\]
*1319 top_inst\.sprite_data_inst\.sprite_data\[1\]
*1320 top_inst\.sprite_data_inst\.sprite_data\[20\]
*1321 top_inst\.sprite_data_inst\.sprite_data\[21\]
*1322 top_inst\.sprite_data_inst\.sprite_data\[22\]
*1323 top_inst\.sprite_data_inst\.sprite_data\[23\]
*1324 top_inst\.sprite_data_inst\.sprite_data\[24\]
*1325 top_inst\.sprite_data_inst\.sprite_data\[25\]
*1326 top_inst\.sprite_data_inst\.sprite_data\[26\]
*1327 top_inst\.sprite_data_inst\.sprite_data\[27\]
*1328 top_inst\.sprite_data_inst\.sprite_data\[28\]
*1329 top_inst\.sprite_data_inst\.sprite_data\[29\]
*1330 top_inst\.sprite_data_inst\.sprite_data\[2\]
*1331 top_inst\.sprite_data_inst\.sprite_data\[30\]
*1332 top_inst\.sprite_data_inst\.sprite_data\[31\]
*1333 top_inst\.sprite_data_inst\.sprite_data\[32\]
*1334 top_inst\.sprite_data_inst\.sprite_data\[33\]
*1335 top_inst\.sprite_data_inst\.sprite_data\[34\]
*1336 top_inst\.sprite_data_inst\.sprite_data\[35\]
*1337 top_inst\.sprite_data_inst\.sprite_data\[36\]
*1338 top_inst\.sprite_data_inst\.sprite_data\[37\]
*1339 top_inst\.sprite_data_inst\.sprite_data\[38\]
*1340 top_inst\.sprite_data_inst\.sprite_data\[39\]
*1341 top_inst\.sprite_data_inst\.sprite_data\[3\]
*1342 top_inst\.sprite_data_inst\.sprite_data\[40\]
*1343 top_inst\.sprite_data_inst\.sprite_data\[41\]
*1344 top_inst\.sprite_data_inst\.sprite_data\[42\]
*1345 top_inst\.sprite_data_inst\.sprite_data\[43\]
*1346 top_inst\.sprite_data_inst\.sprite_data\[44\]
*1347 top_inst\.sprite_data_inst\.sprite_data\[45\]
*1348 top_inst\.sprite_data_inst\.sprite_data\[46\]
*1349 top_inst\.sprite_data_inst\.sprite_data\[47\]
*1350 top_inst\.sprite_data_inst\.sprite_data\[48\]
*1351 top_inst\.sprite_data_inst\.sprite_data\[49\]
*1352 top_inst\.sprite_data_inst\.sprite_data\[4\]
*1353 top_inst\.sprite_data_inst\.sprite_data\[50\]
*1354 top_inst\.sprite_data_inst\.sprite_data\[51\]
*1355 top_inst\.sprite_data_inst\.sprite_data\[52\]
*1356 top_inst\.sprite_data_inst\.sprite_data\[53\]
*1357 top_inst\.sprite_data_inst\.sprite_data\[54\]
*1358 top_inst\.sprite_data_inst\.sprite_data\[55\]
*1359 top_inst\.sprite_data_inst\.sprite_data\[56\]
*1360 top_inst\.sprite_data_inst\.sprite_data\[57\]
*1361 top_inst\.sprite_data_inst\.sprite_data\[58\]
*1362 top_inst\.sprite_data_inst\.sprite_data\[59\]
*1363 top_inst\.sprite_data_inst\.sprite_data\[5\]
*1364 top_inst\.sprite_data_inst\.sprite_data\[60\]
*1365 top_inst\.sprite_data_inst\.sprite_data\[61\]
*1366 top_inst\.sprite_data_inst\.sprite_data\[62\]
*1367 top_inst\.sprite_data_inst\.sprite_data\[63\]
*1368 top_inst\.sprite_data_inst\.sprite_data\[64\]
*1369 top_inst\.sprite_data_inst\.sprite_data\[65\]
*1370 top_inst\.sprite_data_inst\.sprite_data\[66\]
*1371 top_inst\.sprite_data_inst\.sprite_data\[67\]
*1372 top_inst\.sprite_data_inst\.sprite_data\[68\]
*1373 top_inst\.sprite_data_inst\.sprite_data\[69\]
*1374 top_inst\.sprite_data_inst\.sprite_data\[6\]
*1375 top_inst\.sprite_data_inst\.sprite_data\[70\]
*1376 top_inst\.sprite_data_inst\.sprite_data\[71\]
*1377 top_inst\.sprite_data_inst\.sprite_data\[72\]
*1378 top_inst\.sprite_data_inst\.sprite_data\[73\]
*1379 top_inst\.sprite_data_inst\.sprite_data\[74\]
*1380 top_inst\.sprite_data_inst\.sprite_data\[75\]
*1381 top_inst\.sprite_data_inst\.sprite_data\[76\]
*1382 top_inst\.sprite_data_inst\.sprite_data\[77\]
*1383 top_inst\.sprite_data_inst\.sprite_data\[78\]
*1384 top_inst\.sprite_data_inst\.sprite_data\[79\]
*1385 top_inst\.sprite_data_inst\.sprite_data\[7\]
*1386 top_inst\.sprite_data_inst\.sprite_data\[80\]
*1387 top_inst\.sprite_data_inst\.sprite_data\[81\]
*1388 top_inst\.sprite_data_inst\.sprite_data\[82\]
*1389 top_inst\.sprite_data_inst\.sprite_data\[83\]
*1390 top_inst\.sprite_data_inst\.sprite_data\[84\]
*1391 top_inst\.sprite_data_inst\.sprite_data\[85\]
*1392 top_inst\.sprite_data_inst\.sprite_data\[86\]
*1393 top_inst\.sprite_data_inst\.sprite_data\[87\]
*1394 top_inst\.sprite_data_inst\.sprite_data\[88\]
*1395 top_inst\.sprite_data_inst\.sprite_data\[89\]
*1396 top_inst\.sprite_data_inst\.sprite_data\[8\]
*1397 top_inst\.sprite_data_inst\.sprite_data\[90\]
*1398 top_inst\.sprite_data_inst\.sprite_data\[91\]
*1399 top_inst\.sprite_data_inst\.sprite_data\[92\]
*1400 top_inst\.sprite_data_inst\.sprite_data\[93\]
*1401 top_inst\.sprite_data_inst\.sprite_data\[94\]
*1402 top_inst\.sprite_data_inst\.sprite_data\[95\]
*1403 top_inst\.sprite_data_inst\.sprite_data\[96\]
*1404 top_inst\.sprite_data_inst\.sprite_data\[97\]
*1405 top_inst\.sprite_data_inst\.sprite_data\[98\]
*1406 top_inst\.sprite_data_inst\.sprite_data\[99\]
*1407 top_inst\.sprite_data_inst\.sprite_data\[9\]
*1408 top_inst\.sprite_movement_inst\.divider
*1409 top_inst\.sprite_movement_inst\.sprite_x\[0\]
*1410 top_inst\.sprite_movement_inst\.sprite_x\[1\]
*1411 top_inst\.sprite_movement_inst\.sprite_x\[2\]
*1412 top_inst\.sprite_movement_inst\.sprite_x\[3\]
*1413 top_inst\.sprite_movement_inst\.sprite_x\[4\]
*1414 top_inst\.sprite_movement_inst\.sprite_x\[5\]
*1415 top_inst\.sprite_movement_inst\.sprite_x\[6\]
*1416 top_inst\.sprite_movement_inst\.sprite_x\[7\]
*1417 top_inst\.sprite_movement_inst\.sprite_x_dir
*1418 top_inst\.sprite_movement_inst\.sprite_y\[0\]
*1419 top_inst\.sprite_movement_inst\.sprite_y\[1\]
*1420 top_inst\.sprite_movement_inst\.sprite_y\[2\]
*1421 top_inst\.sprite_movement_inst\.sprite_y\[3\]
*1422 top_inst\.sprite_movement_inst\.sprite_y\[4\]
*1423 top_inst\.sprite_movement_inst\.sprite_y\[5\]
*1424 top_inst\.sprite_movement_inst\.sprite_y\[6\]
*1425 top_inst\.sprite_movement_inst\.sprite_y\[7\]
*1426 top_inst\.sprite_movement_inst\.sprite_y_dir
*1427 top_inst\.time_dir
*1428 top_inst\.timing_ver\.sync
*1429 ANTENNA_1
*1430 ANTENNA_10
*1431 ANTENNA_11
*1432 ANTENNA_12
*1433 ANTENNA_13
*1434 ANTENNA_14
*1435 ANTENNA_2
*1436 ANTENNA_3
*1437 ANTENNA_4
*1438 ANTENNA_5
*1439 ANTENNA_6
*1440 ANTENNA_7
*1441 ANTENNA_8
*1442 ANTENNA_9
*1443 FILLER_0_0_101
*1444 FILLER_0_0_111
*1445 FILLER_0_0_116
*1446 FILLER_0_0_162
*1447 FILLER_0_0_167
*1448 FILLER_0_0_172
*1449 FILLER_0_0_203
*1450 FILLER_0_0_225
*1451 FILLER_0_0_256
*1452 FILLER_0_0_278
*1453 FILLER_0_0_287
*1454 FILLER_0_0_3
*1455 FILLER_0_0_329
*1456 FILLER_0_0_334
*1457 FILLER_0_0_349
*1458 FILLER_0_0_91
*1459 FILLER_0_10_114
*1460 FILLER_0_10_139
*1461 FILLER_0_10_161
*1462 FILLER_0_10_187
*1463 FILLER_0_10_253
*1464 FILLER_0_10_3
*1465 FILLER_0_10_307
*1466 FILLER_0_10_309
*1467 FILLER_0_10_75
*1468 FILLER_0_11_113
*1469 FILLER_0_11_178
*1470 FILLER_0_11_182
*1471 FILLER_0_11_222
*1472 FILLER_0_11_278
*1473 FILLER_0_11_3
*1474 FILLER_0_11_349
*1475 FILLER_0_11_71
*1476 FILLER_0_12_132
*1477 FILLER_0_12_187
*1478 FILLER_0_12_197
*1479 FILLER_0_12_231
*1480 FILLER_0_12_27
*1481 FILLER_0_12_278
*1482 FILLER_0_12_29
*1483 FILLER_0_12_349
*1484 FILLER_0_12_85
*1485 FILLER_0_12_94
*1486 FILLER_0_13_134
*1487 FILLER_0_13_148
*1488 FILLER_0_13_162
*1489 FILLER_0_13_225
*1490 FILLER_0_13_254
*1491 FILLER_0_13_279
*1492 FILLER_0_13_3
*1493 FILLER_0_13_334
*1494 FILLER_0_13_346
*1495 FILLER_0_13_350
*1496 FILLER_0_13_44
*1497 FILLER_0_13_57
*1498 FILLER_0_13_67
*1499 FILLER_0_13_74
*1500 FILLER_0_14_128
*1501 FILLER_0_14_176
*1502 FILLER_0_14_26
*1503 FILLER_0_14_262
*1504 FILLER_0_14_350
*1505 FILLER_0_14_85
*1506 FILLER_0_14_94
*1507 FILLER_0_15_116
*1508 FILLER_0_15_157
*1509 FILLER_0_15_176
*1510 FILLER_0_15_184
*1511 FILLER_0_15_206
*1512 FILLER_0_15_23
*1513 FILLER_0_15_279
*1514 FILLER_0_15_3
*1515 FILLER_0_15_334
*1516 FILLER_0_15_349
*1517 FILLER_0_15_54
*1518 FILLER_0_15_57
*1519 FILLER_0_15_64
*1520 FILLER_0_16_125
*1521 FILLER_0_16_129
*1522 FILLER_0_16_15
*1523 FILLER_0_16_180
*1524 FILLER_0_16_188
*1525 FILLER_0_16_204
*1526 FILLER_0_16_211
*1527 FILLER_0_16_3
*1528 FILLER_0_16_349
*1529 FILLER_0_16_43
*1530 FILLER_0_16_52
*1531 FILLER_0_16_75
*1532 FILLER_0_16_85
*1533 FILLER_0_17_177
*1534 FILLER_0_17_196
*1535 FILLER_0_17_205
*1536 FILLER_0_17_214
*1537 FILLER_0_17_225
*1538 FILLER_0_17_278
*1539 FILLER_0_17_281
*1540 FILLER_0_17_306
*1541 FILLER_0_17_349
*1542 FILLER_0_17_46
*1543 FILLER_0_17_70
*1544 FILLER_0_17_83
*1545 FILLER_0_17_91
*1546 FILLER_0_18_108
*1547 FILLER_0_18_120
*1548 FILLER_0_18_128
*1549 FILLER_0_18_132
*1550 FILLER_0_18_141
*1551 FILLER_0_18_146
*1552 FILLER_0_18_178