*SPEF "ieee 1481-1999"
*DESIGN "tt_um_blink"
*DATE "11:11:11 Fri 11 11, 1111"
*VENDOR "OpenRCX"
*PROGRAM "Parallel Extraction"
*VERSION "1.0"
*DESIGN_FLOW "NAME_SCOPE LOCAL" "PIN_CAP NONE"
*DIVIDER /
*DELIMITER :
*BUS_DELIMITER []
*T_UNIT 1 NS
*C_UNIT 1 PF
*R_UNIT 1 OHM
*L_UNIT 1 HENRY

*NAME_MAP
*3 clk
*4 ena
*5 rst_n
*6 ui_in[0]
*7 ui_in[1]
*8 ui_in[2]
*9 ui_in[3]
*10 ui_in[4]
*11 ui_in[5]
*12 ui_in[6]
*13 ui_in[7]
*14 uio_in[0]
*15 uio_in[1]
*16 uio_in[2]
*17 uio_in[3]
*18 uio_in[4]
*19 uio_in[5]
*20 uio_in[6]
*21 uio_in[7]
*22 net10
*23 net11
*24 net12
*25 net13
*26 net14
*27 net15
*28 net16
*29 net17
*30 uio_out[0]
*31 uio_out[1]
*32 uio_out[2]
*33 uio_out[3]
*34 uio_out[4]
*35 uio_out[5]
*36 uio_out[6]
*37 uio_out[7]
*38 uo_out[0]
*39 uo_out[1]
*40 uo_out[2]
*41 uo_out[3]
*42 uo_out[4]
*43 uo_out[5]
*44 uo_out[6]
*45 uo_out[7]
*46 _000_
*47 _001_
*48 _002_
*49 _003_
*50 _004_
*51 _005_
*52 _006_
*53 _007_
*54 _008_
*55 _009_
*56 _010_
*57 _011_
*58 _012_
*59 _013_
*60 _014_
*61 _015_
*62 _016_
*63 _017_
*64 _018_
*65 _019_
*66 _020_
*67 _021_
*68 _022_
*69 _023_
*70 _024_
*71 _025_
*72 _026_
*73 _027_
*74 _028_
*75 _029_
*76 _030_
*77 _031_
*78 _032_
*79 _033_
*80 _034_
*81 _035_
*82 _036_
*83 _037_
*84 _038_
*85 _039_
*86 _040_
*87 _041_
*88 _042_
*89 _043_
*90 _044_
*91 _045_
*92 _046_
*93 _047_
*94 _048_
*95 _049_
*96 _050_
*97 _051_
*98 _052_
*99 _053_
*100 _054_
*101 _055_
*102 clknet_0_clk
*103 clknet_1_0__leaf_clk
*104 clknet_1_1__leaf_clk
*105 cnt\[0\]
*106 cnt\[10\]
*107 cnt\[11\]
*108 cnt\[12\]
*109 cnt\[13\]
*110 cnt\[14\]
*111 cnt\[15\]
*112 cnt\[1\]
*113 cnt\[2\]
*114 cnt\[3\]
*115 cnt\[4\]
*116 cnt\[5\]
*117 cnt\[6\]
*118 cnt\[7\]
*119 cnt\[8\]
*120 cnt\[9\]
*121 net1
*122 net18
*123 net19
*124 net2
*125 net20
*126 net21
*127 net22
*128 net23
*129 net24
*130 net25
*131 net26
*132 net3
*133 net4
*134 net5
*135 net6
*136 net7
*137 net8
*138 net9
*139 FILLER_0_0_109
*140 FILLER_0_0_113
*141 FILLER_0_0_125
*142 FILLER_0_0_137
*143 FILLER_0_0_141
*144 FILLER_0_0_15
*145 FILLER_0_0_153
*146 FILLER_0_0_165
*147 FILLER_0_0_169
*148 FILLER_0_0_181
*149 FILLER_0_0_193
*150 FILLER_0_0_197
*151 FILLER_0_0_209
*152 FILLER_0_0_221
*153 FILLER_0_0_225
*154 FILLER_0_0_237
*155 FILLER_0_0_249
*156 FILLER_0_0_253
*157 FILLER_0_0_265
*158 FILLER_0_0_27
*159 FILLER_0_0_277
*160 FILLER_0_0_281
*161 FILLER_0_0_29
*162 FILLER_0_0_293
*163 FILLER_0_0_3
*164 FILLER_0_0_305
*165 FILLER_0_0_309
*166 FILLER_0_0_321
*167 FILLER_0_0_333
*168 FILLER_0_0_337
*169 FILLER_0_0_349
*170 FILLER_0_0_41
*171 FILLER_0_0_53
*172 FILLER_0_0_57
*173 FILLER_0_0_69
*174 FILLER_0_0_81
*175 FILLER_0_0_85
*176 FILLER_0_0_97
*177 FILLER_0_10_109
*178 FILLER_0_10_121
*179 FILLER_0_10_133
*180 FILLER_0_10_139
*181 FILLER_0_10_141
*182 FILLER_0_10_15
*183 FILLER_0_10_153
*184 FILLER_0_10_165
*185 FILLER_0_10_177
*186 FILLER_0_10_189
*187 FILLER_0_10_195
*188 FILLER_0_10_197
*189 FILLER_0_10_209
*190 FILLER_0_10_221
*191 FILLER_0_10_233
*192 FILLER_0_10_245
*193 FILLER_0_10_251
*194 FILLER_0_10_253
*195 FILLER_0_10_265
*196 FILLER_0_10_27
*197 FILLER_0_10_277
*198 FILLER_0_10_289
*199 FILLER_0_10_29
*200 FILLER_0_10_3
*201 FILLER_0_10_301
*202 FILLER_0_10_307
*203 FILLER_0_10_309
*204 FILLER_0_10_321
*205 FILLER_0_10_333
*206 FILLER_0_10_345
*207 FILLER_0_10_41
*208 FILLER_0_10_53
*209 FILLER_0_10_65
*210 FILLER_0_10_77
*211 FILLER_0_10_83
*212 FILLER_0_10_85
*213 FILLER_0_10_97
*214 FILLER_0_11_105
*215 FILLER_0_11_111
*216 FILLER_0_11_113
*217 FILLER_0_11_125
*218 FILLER_0_11_137
*219 FILLER_0_11_149
*220 FILLER_0_11_15
*221 FILLER_0_11_161
*222 FILLER_0_11_167
*223 FILLER_0_11_169
*224 FILLER_0_11_181
*225 FILLER_0_11_193
*226 FILLER_0_11_205
*227 FILLER_0_11_217
*228 FILLER_0_11_223
*229 FILLER_0_11_225
*230 FILLER_0_11_237
*231 FILLER_0_11_249
*232 FILLER_0_11_261
*233 FILLER_0_11_27
*234 FILLER_0_11_273
*235 FILLER_0_11_279
*236 FILLER_0_11_281
*237 FILLER_0_11_293
*238 FILLER_0_11_3
*239 FILLER_0_11_305
*240 FILLER_0_11_317
*241 FILLER_0_11_329
*242 FILLER_0_11_335
*243 FILLER_0_11_337
*244 FILLER_0_11_349
*245 FILLER_0_11_39
*246 FILLER_0_11_51
*247 FILLER_0_11_55
*248 FILLER_0_11_57
*249 FILLER_0_11_69
*250 FILLER_0_11_81
*251 FILLER_0_11_93
*252 FILLER_0_12_109
*253 FILLER_0_12_121
*254 FILLER_0_12_133
*255 FILLER_0_12_139
*256 FILLER_0_12_141
*257 FILLER_0_12_15
*258 FILLER_0_12_153
*259 FILLER_0_12_165
*260 FILLER_0_12_177
*261 FILLER_0_12_189
*262 FILLER_0_12_195
*263 FILLER_0_12_197
*264 FILLER_0_12_209
*265 FILLER_0_12_221
*266 FILLER_0_12_233
*267 FILLER_0_12_245
*268 FILLER_0_12_251
*269 FILLER_0_12_253
*270 FILLER_0_12_265
*271 FILLER_0_12_27
*272 FILLER_0_12_277
*273 FILLER_0_12_289
*274 FILLER_0_12_29
*275 FILLER_0_12_3
*276 FILLER_0_12_301
*277 FILLER_0_12_307
*278 FILLER_0_12_309
*279 FILLER_0_12_321
*280 FILLER_0_12_333
*281 FILLER_0_12_345
*282 FILLER_0_12_41
*283 FILLER_0_12_53
*284 FILLER_0_12_65
*285 FILLER_0_12_77
*286 FILLER_0_12_83
*287 FILLER_0_12_85
*288 FILLER_0_12_97
*289 FILLER_0_13_105
*290 FILLER_0_13_111
*291 FILLER_0_13_113
*292 FILLER_0_13_125
*293 FILLER_0_13_137
*294 FILLER_0_13_149
*295 FILLER_0_13_15
*296 FILLER_0_13_161
*297 FILLER_0_13_167
*298 FILLER_0_13_169
*299 FILLER_0_13_181
*300 FILLER_0_13_193
*301 FILLER_0_13_205
*302 FILLER_0_13_217
*303 FILLER_0_13_223
*304 FILLER_0_13_225
*305 FILLER_0_13_237
*306 FILLER_0_13_249
*307 FILLER_0_13_261
*308 FILLER_0_13_27
*309 FILLER_0_13_273
*310 FILLER_0_13_279
*311 FILLER_0_13_281
*312 FILLER_0_13_293
*313 FILLER_0_13_3
*314 FILLER_0_13_305
*315 FILLER_0_13_317
*316 FILLER_0_13_329
*317 FILLER_0_13_335
*318 FILLER_0_13_337
*319 FILLER_0_13_349
*320 FILLER_0_13_39
*321 FILLER_0_13_51
*322 FILLER_0_13_55
*323 FILLER_0_13_57
*324 FILLER_0_13_69
*325 FILLER_0_13_81
*326 FILLER_0_13_93
*327 FILLER_0_14_109
*328 FILLER_0_14_121
*329 FILLER_0_14_133
*330 FILLER_0_14_139
*331 FILLER_0_14_141
*332 FILLER_0_14_15
*333 FILLER_0_14_153
*334 FILLER_0_14_165
*335 FILLER_0_14_177
*336 FILLER_0_14_189
*337 FILLER_0_14_195
*338 FILLER_0_14_197
*339 FILLER_0_14_209
*340 FILLER_0_14_221
*341 FILLER_0_14_233
*342 FILLER_0_14_245
*343 FILLER_0_14_251
*344 FILLER_0_14_253
*345 FILLER_0_14_265
*346 FILLER_0_14_27
*347 FILLER_0_14_277
*348 FILLER_0_14_289
*349 FILLER_0_14_29
*350 FILLER_0_14_3
*351 FILLER_0_14_301
*352 FILLER_0_14_307
*353 FILLER_0_14_309
*354 FILLER_0_14_321
*355 FILLER_0_14_333
*356 FILLER_0_14_345
*357 FILLER_0_14_41
*358 FILLER_0_14_53
*359 FILLER_0_14_65
*360 FILLER_0_14_77
*361 FILLER_0_14_83
*362 FILLER_0_14_85
*363 FILLER_0_14_97
*364 FILLER_0_15_105
*365 FILLER_0_15_111
*366 FILLER_0_15_113
*367 FILLER_0_15_125
*368 FILLER_0_15_137
*369 FILLER_0_15_149
*370 FILLER_0_15_15
*371 FILLER_0_15_161
*372 FILLER_0_15_167
*373 FILLER_0_15_169
*374 FILLER_0_15_181
*375 FILLER_0_15_193
*376 FILLER_0_15_205
*377 FILLER_0_15_217
*378 FILLER_0_15_223
*379 FILLER_0_15_225
*380 FILLER_0_15_237
*381 FILLER_0_15_249
*382 FILLER_0_15_261
*383 FILLER_0_15_27
*384 FILLER_0_15_273
*385 FILLER_0_15_279
*386 FILLER_0_15_281
*387 FILLER_0_15_293
*388 FILLER_0_15_3
*389 FILLER_0_15_305
*390 FILLER_0_15_317
*391 FILLER_0_15_329
*392 FILLER_0_15_335
*393 FILLER_0_15_337
*394 FILLER_0_15_349
*395 FILLER_0_15_39
*396 FILLER_0_15_51
*397 FILLER_0_15_55
*398 FILLER_0_15_57
*399 FILLER_0_15_69
*400 FILLER_0_15_81
*401 FILLER_0_15_93
*402 FILLER_0_16_109
*403 FILLER_0_16_121
*404 FILLER_0_16_133
*405 FILLER_0_16_139
*406 FILLER_0_16_141
*407 FILLER_0_16_15
*408 FILLER_0_16_153
*409 FILLER_0_16_165
*410 FILLER_0_16_177
*411 FILLER_0_16_189
*412 FILLER_0_16_195
*413 FILLER_0_16_197
*414 FILLER_0_16_209
*415 FILLER_0_16_221
*416 FILLER_0_16_233
*417 FILLER_0_16_245
*418 FILLER_0_16_251
*419 FILLER_0_16_253
*420 FILLER_0_16_265
*421 FILLER_0_16_27
*422 FILLER_0_16_277
*423 FILLER_0_16_289
*424 FILLER_0_16_29
*425 FILLER_0_16_3
*426 FILLER_0_16_301
*427 FILLER_0_16_307
*428 FILLER_0_16_309
*429 FILLER_0_16_321
*430 FILLER_0_16_333
*431 FILLER_0_16_345
*432 FILLER_0_16_41
*433 FILLER_0_16_53
*434 FILLER_0_16_65
*435 FILLER_0_16_77
*436 FILLER_0_16_83
*437 FILLER_0_16_85
*438 FILLER_0_16_97
*439 FILLER_0_17_105
*440 FILLER_0_17_111
*441 FILLER_0_17_113
*442 FILLER_0_17_125
*443 FILLER_0_17_137
*444 FILLER_0_17_149
*445 FILLER_0_17_15
*446 FILLER_0_17_161
*447 FILLER_0_17_167
*448 FILLER_0_17_169
*449 FILLER_0_17_181
*450 FILLER_0_17_193
*451 FILLER_0_17_205
*452 FILLER_0_17_217
*453 FILLER_0_17_223
*454 FILLER_0_17_225
*455 FILLER_0_17_237
*456 FILLER_0_17_249
*457 FILLER_0_17_261
*458 FILLER_0_17_27
*459 FILLER_0_17_273
*460 FILLER_0_17_279
*461 FILLER_0_17_281
*462 FILLER_0_17_293
*463 FILLER_0_17_3
*464 FILLER_0_17_305
*465 FILLER_0_17_317
*466 FILLER_0_17_329
*467 FILLER_0_17_335
*468 FILLER_0_17_337
*469 FILLER_0_17_349
*470 FILLER_0_17_39
*471 FILLER_0_17_51
*472 FILLER_0_17_55
*473 FILLER_0_17_57
*474 FILLER_0_17_69
*475 FILLER_0_17_81
*476 FILLER_0_17_93
*477 FILLER_0_18_109
*478 FILLER_0_18_121
*479 FILLER_0_18_133
*480 FILLER_0_18_139
*481 FILLER_0_18_141
*482 FILLER_0_18_15
*483 FILLER_0_18_153
*484 FILLER_0_18_165
*485 FILLER_0_18_177
*486 FILLER_0_18_189
*487 FILLER_0_18_195
*488 FILLER_0_18_197
*489 FILLER_0_18_209
*490 FILLER_0_18_221
*491 FILLER_0_18_233
*492 FILLER_0_18_245
*493 FILLER_0_18_251
*494 FILLER_0_18_253
*495 FILLER_0_18_265
*496 FILLER_0_18_27
*497 FILLER_0_18_277
*498 FILLER_0_18_289
*499 FILLER_0_18_29
*500 FILLER_0_18_3
*501 FILLER_0_18_301
*502 FILLER_0_18_307
*503 FILLER_0_18_309
*504 FILLER_0_18_321
*505 FILLER_0_18_333
*506 FILLER_0_18_345
*507 FILLER_0_18_41
*508 FILLER_0_18_53
*509 FILLER_0_18_65
*510 FILLER_0_18_77
*511 FILLER_0_18_83
*512 FILLER_0_18_85
*513 FILLER_0_18_97
*514 FILLER_0_19_105
*515 FILLER_0_19_111
*516 FILLER_0_19_113
*517 FILLER_0_19_125
*518 FILLER_0_19_137
*519 FILLER_0_19_149
*520 FILLER_0_19_15
*521 FILLER_0_19_161
*522 FILLER_0_19_167
*523 FILLER_0_19_169
*524 FILLER_0_19_181
*525 FILLER_0_19_193
*526 FILLER_0_19_205
*527 FILLER_0_19_217
*528 FILLER_0_19_223
*529 FILLER_0_19_225
*530 FILLER_0_19_237
*531 FILLER_0_19_249
*532 FILLER_0_19_261
*533 FILLER_0_19_27
*534 FILLER_0_19_273
*535 FILLER_0_19_279
*536 FILLER_0_19_281
*537 FILLER_0_19_293
*538 FILLER_0_19_3
*539 FILLER_0_19_305
*540 FILLER_0_19_317
*541 FILLER_0_19_329
*542 FILLER_0_19_335
*543 FILLER_0_19_337
*544 FILLER_0_19_349
*545 FILLER_0_19_39
*546 FILLER_0_19_51
*547 FILLER_0_19_55
*548 FILLER_0_19_57
*549 FILLER_0_19_69
*550 FILLER_0_19_81
*551 FILLER_0_19_93
*552 FILLER_0_1_105
*553 FILLER_0_1_111
*554 FILLER_0_1_113
*555 FILLER_0_1_125
*556 FILLER_0_1_137
*557 FILLER_0_1_149
*558 FILLER_0_1_15
*559 FILLER_0_1_161
*560 FILLER_0_1_167
*561 FILLER_0_1_169
*562 FILLER_0_1_181
*563 FILLER_0_1_193
*564 FILLER_0_1_205
*565 FILLER_0_1_217
*566 FILLER_0_1_223
*567 FILLER_0_1_225
*568 FILLER_0_1_237
*569 FILLER_0_1_249
*570 FILLER_0_1_261
*571 FILLER_0_1_27
*572 FILLER_0_1_273
*573 FILLER_0_1_279
*574 FILLER_0_1_281
*575 FILLER_0_1_293
*576 FILLER_0_1_3
*577 FILLER_0_1_305
*578 FILLER_0_1_317
*579 FILLER_0_1_329
*580 FILLER_0_1_335
*581 FILLER_0_1_337
*582 FILLER_0_1_349
*583 FILLER_0_1_39
*584 FILLER_0_1_51
*585 FILLER_0_1_55
*586 FILLER_0_1_57
*587 FILLER_0_1_69
*588 FILLER_0_1_81
*589 FILLER_0_1_93
*590 FILLER_0_20_109
*591 FILLER_0_20_121
*592 FILLER_0_20_133
*593 FILLER_0_20_139
*594 FILLER_0_20_141
*595 FILLER_0_20_15
*596 FILLER_0_20_153
*597 FILLER_0_20_165
*598 FILLER_0_20_177
*599 FILLER_0_20_189
*600 FILLER_0_20_195
*601 FILLER_0_20_197
*602 FILLER_0_20_209
*603 FILLER_0_20_221
*604 FILLER_0_20_233
*605 FILLER_0_20_245
*606 FILLER_0_20_251
*607 FILLER_0_20_253
*608 FILLER_0_20_265
*609 FILLER_0_20_27
*610 FILLER_0_20_277
*611 FILLER_0_20_289
*612 FILLER_0_20_29
*613 FILLER_0_20_3
*614 FILLER_0_20_301
*615 FILLER_0_20_307
*616 FILLER_0_20_309
*617 FILLER_0_20_321
*618 FILLER_0_20_333
*619 FILLER_0_20_345
*620 FILLER_0_20_41
*621 FILLER_0_20_53
*622 FILLER_0_20_65
*623 FILLER_0_20_77
*624 FILLER_0_20_83
*625 FILLER_0_20_85
*626 FILLER_0_20_97
*627 FILLER_0_21_105
*628 FILLER_0_21_111
*629 FILLER_0_21_113
*630 FILLER_0_21_125
*631 FILLER_0_21_137
*632 FILLER_0_21_149
*633 FILLER_0_21_15
*634 FILLER_0_21_161
*635 FILLER_0_21_167
*636 FILLER_0_21_169
*637 FILLER_0_21_181
*638 FILLER_0_21_193
*639 FILLER_0_21_205
*640 FILLER_0_21_217
*641 FILLER_0_21_223
*642 FILLER_0_21_225
*643 FILLER_0_21_237
*644 FILLER_0_21_249
*645 FILLER_0_21_261
*646 FILLER_0_21_27
*647 FILLER_0_21_273
*648 FILLER_0_21_279
*649 FILLER_0_21_281
*650 FILLER_0_21_293
*651 FILLER_0_21_3
*652 FILLER_0_21_305
*653 FILLER_0_21_317
*654 FILLER_0_21_329
*655 FILLER_0_21_335
*656 FILLER_0_21_337
*657 FILLER_0_21_349
*658 FILLER_0_21_39
*659 FILLER_0_21_51
*660 FILLER_0_21_55
*661 FILLER_0_21_57
*662 FILLER_0_21_69
*663 FILLER_0_21_81
*664 FILLER_0_21_93
*665 FILLER_0_22_109
*666 FILLER_0_22_121
*667 FILLER_0_22_133
*668 FILLER_0_22_139
*669 FILLER_0_22_141
*670 FILLER_0_22_15
*671 FILLER_0_22_153
*672 FILLER_0_22_165
*673 FILLER_0_22_177
*674 FILLER_0_22_189
*675 FILLER_0_22_195
*676 FILLER_0_22_197
*677 FILLER_0_22_209
*678 FILLER_0_22_221
*679 FILLER_0_22_233
*680 FILLER_0_22_245
*681 FILLER_0_22_251
*682 FILLER_0_22_253
*683 FILLER_0_22_265
*684 FILLER_0_22_27
*685 FILLER_0_22_277
*686 FILLER_0_22_289
*687 FILLER_0_22_29
*688 FILLER_0_22_3
*689 FILLER_0_22_301
*690 FILLER_0_22_307
*691 FILLER_0_22_309
*692 FILLER_0_22_321
*693 FILLER_0_22_333
*694 FILLER_0_22_345
*695 FILLER_0_22_41
*696 FILLER_0_22_53
*697 FILLER_0_22_65
*698 FILLER_0_22_77
*699 FILLER_0_22_83
*700 FILLER_0_22_85
*701 FILLER_0_22_97
*702 FILLER_0_23_105
*703 FILLER_0_23_111
*704 FILLER_0_23_113
*705 FILLER_0_23_125
*706 FILLER_0_23_137
*707 FILLER_0_23_149
*708 FILLER_0_23_15
*709 FILLER_0_23_161
*710 FILLER_0_23_167
*711 FILLER_0_23_169
*712 FILLER_0_23_181
*713 FILLER_0_23_193
*714 FILLER_0_23_205
*715 FILLER_0_23_217
*716 FILLER_0_23_223
*717 FILLER_0_23_225
*718 FILLER_0_23_237
*719 FILLER_0_23_249
*720 FILLER_0_23_261
*721 FILLER_0_23_27
*722 FILLER_0_23_273
*723 FILLER_0_23_279
*724 FILLER_0_23_281
*725 FILLER_0_23_293
*726 FILLER_0_23_3
*727 FILLER_0_23_305
*728 FILLER_0_23_317
*729 FILLER_0_23_329
*730 FILLER_0_23_335
*731 FILLER_0_23_337
*732 FILLER_0_23_349
*733 FILLER_0_23_39
*734 FILLER_0_23_51
*735 FILLER_0_23_55
*736 FILLER_0_23_57
*737 FILLER_0_23_69
*738 FILLER_0_23_81
*739 FILLER_0_23_93
*740 FILLER_0_24_109
*741 FILLER_0_24_121
*742 FILLER_0_24_133
*743 FILLER_0_24_139
*744 FILLER_0_24_141
*745 FILLER_0_24_15
*746 FILLER_0_24_153
*747 FILLER_0_24_165
*748 FILLER_0_24_177
*749 FILLER_0_24_189
*750 FILLER_0_24_195
*751 FILLER_0_24_197
*752 FILLER_0_24_209
*753 FILLER_0_24_221
*754 FILLER_0_24_233
*755 FILLER_0_24_245
*756 FILLER_0_24_251
*757 FILLER_0_24_253
*758 FILLER_0_24_265
*759 FILLER_0_24_27
*760 FILLER_0_24_277
*761 FILLER_0_24_289
*762 FILLER_0_24_29
*763 FILLER_0_24_3
*764 FILLER_0_24_301
*765 FILLER_0_24_307
*766 FILLER_0_24_309
*767 FILLER_0_24_321
*768 FILLER_0_24_333
*769 FILLER_0_24_345
*770 FILLER_0_24_41
*771 FILLER_0_24_53
*772 FILLER_0_24_65
*773 FILLER_0_24_77
*774 FILLER_0_24_83
*775 FILLER_0_24_85
*776 FILLER_0_24_97
*777 FILLER_0_25_105
*778 FILLER_0_25_111
*779 FILLER_0_25_113
*780 FILLER_0_25_125
*781 FILLER_0_25_137
*782 FILLER_0_25_149
*783 FILLER_0_25_15
*784 FILLER_0_25_161
*785 FILLER_0_25_167
*786 FILLER_0_25_169
*787 FILLER_0_25_181
*788 FILLER_0_25_193
*789 FILLER_0_25_205
*790 FILLER_0_25_217
*791 FILLER_0_25_223
*792 FILLER_0_25_225
*793 FILLER_0_25_237
*794 FILLER_0_25_249
*795 FILLER_0_25_261
*796 FILLER_0_25_27
*797 FILLER_0_25_273
*798 FILLER_0_25_279
*799 FILLER_0_25_281
*800 FILLER_0_25_293
*801 FILLER_0_25_3
*802 FILLER_0_25_305
*803 FILLER_0_25_317
*804 FILLER_0_25_329
*805 FILLER_0_25_335
*806 FILLER_0_25_337
*807 FILLER_0_25_349
*808 FILLER_0_25_39
*809 FILLER_0_25_51
*810 FILLER_0_25_55
*811 FILLER_0_25_57
*812 FILLER_0_25_69
*813 FILLER_0_25_81
*814 FILLER_0_25_93
*815 FILLER_0_26_109
*816 FILLER_0_26_121
*817 FILLER_0_26_133
*818 FILLER_0_26_139
*819 FILLER_0_26_141
*820 FILLER_0_26_15
*821 FILLER_0_26_153
*822 FILLER_0_26_165
*823 FILLER_0_26_177
*824 FILLER_0_26_189
*825 FILLER_0_26_195
*826 FILLER_0_26_197
*827 FILLER_0_26_209
*828 FILLER_0_26_221
*829 FILLER_0_26_233
*830 FILLER_0_26_245
*831 FILLER_0_26_251
*832 FILLER_0_26_253
*833 FILLER_0_26_265
*834 FILLER_0_26_27
*835 FILLER_0_26_277
*836 FILLER_0_26_289
*837 FILLER_0_26_29
*838 FILLER_0_26_3
*839 FILLER_0_26_301
*840 FILLER_0_26_307
*841 FILLER_0_26_309
*842 FILLER_0_26_321
*843 FILLER_0_26_333
*844 FILLER_0_26_345
*845 FILLER_0_26_41
*846 FILLER_0_26_53
*847 FILLER_0_26_65
*848 FILLER_0_26_77
*849 FILLER_0_26_83
*850 FILLER_0_26_85
*851 FILLER_0_26_97
*852 FILLER_0_27_105
*853 FILLER_0_27_111
*854 FILLER_0_27_113
*855 FILLER_0_27_125
*856 FILLER_0_27_137
*857 FILLER_0_27_149
*858 FILLER_0_27_15
*859 FILLER_0_27_161
*860 FILLER_0_27_167
*861 FILLER_0_27_169
*862 FILLER_0_27_181
*863 FILLER_0_27_193
*864 FILLER_0_27_205
*865 FILLER_0_27_217
*866 FILLER_0_27_223
*867 FILLER_0_27_225
*868 FILLER_0_27_237
*869 FILLER_0_27_249
*870 FILLER_0_27_261
*871 FILLER_0_27_27
*872 FILLER_0_27_273
*873 FILLER_0_27_279
*874 FILLER_0_27_281
*875 FILLER_0_27_293
*876 FILLER_0_27_3
*877 FILLER_0_27_305
*878 FILLER_0_27_317
*879 FILLER_0_27_329
*880 FILLER_0_27_335
*881 FILLER_0_27_337
*882 FILLER_0_27_349
*883 FILLER_0_27_39
*884 FILLER_0_27_51
*885 FILLER_0_27_55
*886 FILLER_0_27_57
*887 FILLER_0_27_69
*888 FILLER_0_27_81
*889 FILLER_0_27_93
*890 FILLER_0_28_109
*891 FILLER_0_28_121
*892 FILLER_0_28_133
*893 FILLER_0_28_139
*894 FILLER_0_28_141
*895 FILLER_0_28_15
*896 FILLER_0_28_153
*897 FILLER_0_28_165
*898 FILLER_0_28_177
*899 FILLER_0_28_189
*900 FILLER_0_28_195
*901 FILLER_0_28_197
*902 FILLER_0_28_209
*903 FILLER_0_28_221
*904 FILLER_0_28_233
*905 FILLER_0_28_245
*906 FILLER_0_28_251
*907 FILLER_0_28_253
*908 FILLER_0_28_265
*909 FILLER_0_28_27
*910 FILLER_0_28_277
*911 FILLER_0_28_289
*912 FILLER_0_28_29
*913 FILLER_0_28_3
*914 FILLER_0_28_301
*915 FILLER_0_28_307
*916 FILLER_0_28_309
*917 FILLER_0_28_321
*918 FILLER_0_28_333
*919 FILLER_0_28_345
*920 FILLER_0_28_41
*921 FILLER_0_28_53
*922 FILLER_0_28_65
*923 FILLER_0_28_77
*924 FILLER_0_28_83
*925 FILLER_0_28_85
*926 FILLER_0_28_97
*927 FILLER_0_29_105
*928 FILLER_0_29_111
*929 FILLER_0_29_113
*930 FILLER_0_29_125
*931 FILLER_0_29_137
*932 FILLER_0_29_149
*933 FILLER_0_29_15
*934 FILLER_0_29_161
*935 FILLER_0_29_167
*936 FILLER_0_29_169
*937 FILLER_0_29_181
*938 FILLER_0_29_193
*939 FILLER_0_29_205
*940 FILLER_0_29_217
*941 FILLER_0_29_223
*942 FILLER_0_29_225
*943 FILLER_0_29_237
*944 FILLER_0_29_249
*945 FILLER_0_29_261
*946 FILLER_0_29_27
*947 FILLER_0_29_273
*948 FILLER_0_29_279
*949 FILLER_0_29_281
*950 FILLER_0_29_293
*951 FILLER_0_29_3
*952 FILLER_0_29_305
*953 FILLER_0_29_317
*954 FILLER_0_29_329
*955 FILLER_0_29_335
*956 FILLER_0_29_337
*957 FILLER_0_29_349
*958 FILLER_0_29_39
*959 FILLER_0_29_51
*960 FILLER_0_29_55
*961 FILLER_0_29_57
*962 FILLER_0_29_69
*963 FILLER_0_29_81
*964 FILLER_0_29_93
*965 FILLER_0_2_109
*966 FILLER_0_2_121
*967 FILLER_0_2_133
*968 FILLER_0_2_139
*969 FILLER_0_2_141
*970 FILLER_0_2_15
*971 FILLER_0_2_153
*972 FILLER_0_2_165
*973 FILLER_0_2_177
*974 FILLER_0_2_189
*975 FILLER_0_2_195
*976 FILLER_0_2_197
*977 FILLER_0_2_209
*978 FILLER_0_2_221
*979 FILLER_0_2_233
*980 FILLER_0_2_245
*981 FILLER_0_2_251
*982 FILLER_0_2_253
*983 FILLER_0_2_265
*984 FILLER_0_2_27
*985 FILLER_0_2_277
*986 FILLER_0_2_289
*987 FILLER_0_2_29
*988 FILLER_0_2_3
*989 FILLER_0_2_301
*990 FILLER_0_2_307
*991 FILLER_0_2_309
*992 FILLER_0_2_321
*993 FILLER_0_2_333
*994 FILLER_0_2_345
*995 FILLER_0_2_41
*996 FILLER_0_2_53
*997 FILLER_0_2_65
*998 FILLER_0_2_77
*999 FILLER_0_2_83
*1000 FILLER_0_2_85
*1001 FILLER_0_2_97
*1002 FILLER_0_30_109
*1003 FILLER_0_30_121
*1004 FILLER_0_30_133
*1005 FILLER_0_30_139
*1006 FILLER_0_30_141
*1007 FILLER_0_30_15
*1008 FILLER_0_30_153
*1009 FILLER_0_30_165
*1010 FILLER_0_30_177
*1011 FILLER_0_30_189
*1012 FILLER_0_30_195
*1013 FILLER_0_30_197
*1014 FILLER_0_30_209
*1015 FILLER_0_30_221
*1016 FILLER_0_30_233
*1017 FILLER_0_30_245
*1018 FILLER_0_30_251
*1019 FILLER_0_30_253
*1020 FILLER_0_30_265
*1021 FILLER_0_30_27
*1022 FILLER_0_30_277
*1023 FILLER_0_30_289
*1024 FILLER_0_30_29
*1025 FILLER_0_30_3
*1026 FILLER_0_30_301
*1027 FILLER_0_30_307
*1028 FILLER_0_30_309
*1029 FILLER_0_30_321
*1030 FILLER_0_30_333
*1031 FILLER_0_30_345
*1032 FILLER_0_30_41
*1033 FILLER_0_30_53
*1034 FILLER_0_30_65
*1035 FILLER_0_30_77
*1036 FILLER_0_30_83
*1037 FILLER_0_30_85
*1038 FILLER_0_30_97
*1039 FILLER_0_31_105
*1040 FILLER_0_31_111
*1041 FILLER_0_31_113
*1042 FILLER_0_31_125
*1043 FILLER_0_31_137
*1044 FILLER_0_31_149
*1045 FILLER_0_31_15
*1046 FILLER_0_31_161
*1047 FILLER_0_31_167
*1048 FILLER_0_31_169
*1049 FILLER_0_31_181
*1050 FILLER_0_31_193
*1051 FILLER_0_31_205
*1052 FILLER_0_31_217
*1053 FILLER_0_31_223
*1054 FILLER_0_31_225
*1055 FILLER_0_31_237
*1056 FILLER_0_31_249
*1057 FILLER_0_31_261
*1058 FILLER_0_31_27
*1059 FILLER_0_31_273
*1060 FILLER_0_31_279
*1061 FILLER_0_31_281
*1062 FILLER_0_31_293
*1063 FILLER_0_31_3
*1064 FILLER_0_31_305
*1065 FILLER_0_31_317
*1066 FILLER_0_31_329
*1067 FILLER_0_31_335
*1068 FILLER_0_31_337
*1069 FILLER_0_31_349
*1070 FILLER_0_31_39
*1071 FILLER_0_31_51
*1072 FILLER_0_31_55
*1073 FILLER_0_31_57
*1074 FILLER_0_31_69
*1075 FILLER_0_31_81
*1076 FILLER_0_31_93
*1077 FILLER_0_32_109
*1078 FILLER_0_32_121
*1079 FILLER_0_32_133
*1080 FILLER_0_32_139
*1081 FILLER_0_32_141
*1082 FILLER_0_32_15
*1083 FILLER_0_32_153
*1084 FILLER_0_32_165
*1085 FILLER_0_32_177
*1086 FILLER_0_32_189
*1087 FILLER_0_32_195
*1088 FILLER_0_32_197
*1089 FILLER_0_32_209
*1090 FILLER_0_32_221
*1091 FILLER_0_32_233
*1092 FILLER_0_32_245
*1093 FILLER_0_32_251
*1094 FILLER_0_32_253
*1095 FILLER_0_32_27
*1096 FILLER_0_32_276
*1097 FILLER_0_32_288
*1098 FILLER_0_32_29
*1099 FILLER_0_32_3
*1100 FILLER_0_32_300
*1101 FILLER_0_32_309
*1102 FILLER_0_32_321
*1103 FILLER_0_32_333
*1104 FILLER_0_32_345
*1105 FILLER_0_32_41
*1106 FILLER_0_32_53
*1107 FILLER_0_32_65
*1108 FILLER_0_32_77
*1109 FILLER_0_32_83
*1110 FILLER_0_32_85
*1111 FILLER_0_32_97
*1112 FILLER_0_33_105
*1113 FILLER_0_33_111
*1114 FILLER_0_33_113
*1115 FILLER_0_33_125
*1116 FILLER_0_33_137
*1117 FILLER_0_33_15
*1118 FILLER_0_33_165
*1119 FILLER_0_33_169
*1120 FILLER_0_33_181
*1121 FILLER_0_33_193
*1122 FILLER_0_33_210
*1123 FILLER_0_33_222
*1124 FILLER_0_33_225
*1125 FILLER_0_33_237
*1126 FILLER_0_33_255
*1127 FILLER_0_33_263
*1128 FILLER_0_33_27
*1129 FILLER_0_33_286
*1130 FILLER_0_33_291
*1131 FILLER_0_33_299
*1132 FILLER_0_33_3
*1133 FILLER_0_33_318
*1134 FILLER_0_33_330
*1135 FILLER_0_33_337
*1136 FILLER_0_33_349
*1137 FILLER_0_33_39
*1138 FILLER_0_33_51
*1139 FILLER_0_33_55
*1140 FILLER_0_33_57
*1141 FILLER_0_33_69
*1142 FILLER_0_33_81
*1143 FILLER_0_33_93
*1144 FILLER_0_34_109
*1145 FILLER_0_34_121
*1146 FILLER_0_34_133
*1147 FILLER_0_34_139
*1148 FILLER_0_34_141
*1149 FILLER_0_34_15
*1150 FILLER_0_34_156
*1151 FILLER_0_34_160
*1152 FILLER_0_34_192
*1153 FILLER_0_34_200
*1154 FILLER_0_34_226
*1155 FILLER_0_34_238
*1156 FILLER_0_34_251
*1157 FILLER_0_34_259
*1158 FILLER_0_34_27
*1159 FILLER_0_34_29
*1160 FILLER_0_34_3
*1161 FILLER_0_34_304
*1162 FILLER_0_34_309
*1163 FILLER_0_34_321
*1164 FILLER_0_34_333
*1165 FILLER_0_34_345
*1166 FILLER_0_34_41
*1167 FILLER_0_34_53
*1168 FILLER_0_34_65
*1169 FILLER_0_34_77
*1170 FILLER_0_34_83
*1171 FILLER_0_34_85
*1172 FILLER_0_34_97
*1173 FILLER_0_35_105
*1174 FILLER_0_35_111
*1175 FILLER_0_35_113
*1176 FILLER_0_35_125
*1177 FILLER_0_35_133
*1178 FILLER_0_35_15
*1179 FILLER_0_35_150
*1180 FILLER_0_35_158
*1181 FILLER_0_35_166
*1182 FILLER_0_35_169
*1183 FILLER_0_35_186
*1184 FILLER_0_35_195
*1185 FILLER_0_35_209
*1186 FILLER_0_35_223
*1187 FILLER_0_35_248
*1188 FILLER_0_35_252
*1189 FILLER_0_35_265
*1190 FILLER_0_35_269
*1191 FILLER_0_35_27
*1192 FILLER_0_35_276
*1193 FILLER_0_35_293
*1194 FILLER_0_35_298
*1195 FILLER_0_35_3
*1196 FILLER_0_35_308
*1197 FILLER_0_35_327
*1198 FILLER_0_35_335
*1199 FILLER_0_35_337
*1200 FILLER_0_35_349
*1201 FILLER_0_35_39
*1202 FILLER_0_35_51
*1203 FILLER_0_35_55
*1204 FILLER_0_35_57
*1205 FILLER_0_35_69
*1206 FILLER_0_35_81
*1207 FILLER_0_35_93
*1208 FILLER_0_36_109
*1209 FILLER_0_36_121
*1210 FILLER_0_36_133
*1211 FILLER_0_36_15
*1212 FILLER_0_36_153
*1213 FILLER_0_36_159
*1214 FILLER_0_36_174
*1215 FILLER_0_36_181
*1216 FILLER_0_36_193
*1217 FILLER_0_36_197
*1218 FILLER_0_36_201
*1219 FILLER_0_36_219
*1220 FILLER_0_36_228
*1221 FILLER_0_36_258
*1222 FILLER_0_36_264
*1223 FILLER_0_36_27
*1224 FILLER_0_36_29
*1225 FILLER_0_36_292
*1226 FILLER_0_36_3
*1227 FILLER_0_36_304
*1228 FILLER_0_36_325
*1229 FILLER_0_36_337
*1230 FILLER_0_36_349
*1231 FILLER_0_36_41
*1232 FILLER_0_36_53
*1233 FILLER_0_36_65
*1234 FILLER_0_36_77
*1235 FILLER_0_36_83
*1236 FILLER_0_36_85
*1237 FILLER_0_36_97
*1238 FILLER_0_37_105
*1239 FILLER_0_37_111
*1240 FILLER_0_37_113
*1241 FILLER_0_37_125
*1242 FILLER_0_37_137
*1243 FILLER_0_37_15
*1244 FILLER_0_37_150
*1245 FILLER_0_37_162
*1246 FILLER_0_37_169
*1247 FILLER_0_37_176
*1248 FILLER_0_37_182
*1249 FILLER_0_37_186
*1250 FILLER_0_37_190
*1251 FILLER_0_37_202
*1252 FILLER_0_37_214
*1253 FILLER_0_37_222
*1254 FILLER_0_37_235
*1255 FILLER_0_37_27
*1256 FILLER_0_37_274
*1257 FILLER_0_37_278
*1258 FILLER_0_37_281
*1259 FILLER_0_37_3
*1260 FILLER_0_37_300
*1261 FILLER_0_37_312
*1262 FILLER_0_37_329
*1263 FILLER_0_37_335
*1264 FILLER_0_37_337
*1265 FILLER_0_37_349
*1266 FILLER_0_37_39
*1267 FILLER_0_37_51
*1268 FILLER_0_37_55
*1269 FILLER_0_37_57
*1270 FILLER_0_37_69
*1271 FILLER_0_37_81
*1272 FILLER_0_37_93
*1273 FILLER_0_38_104
*1274 FILLER_0_38_110
*1275 FILLER_0_38_113
*1276 FILLER_0_38_119
*1277 FILLER_0_38_126
*1278 FILLER_0_38_131
*1279 FILLER_0_38_141
*1280 FILLER_0_38_145
*1281 FILLER_0_38_15
*1282 FILLER_0_38_162
*1283 FILLER_0_38_169
*1284 FILLER_0_38_197
*1285 FILLER_0_38_203
*1286 FILLER_0_38_222
*1287 FILLER_0_38_241
*1288 FILLER_0_38_249
*1289 FILLER_0_38_253
*1290 FILLER_0_38_260
*1291 FILLER_0_38_264
*1292 FILLER_0_38_27
*1293 FILLER_0_38_278
*1294 FILLER_0_38_29
*1295 FILLER_0_38_3
*1296 FILLER_0_38_328
*1297 FILLER_0_38_337
*1298 FILLER_0_38_349
*1299 FILLER_0_38_41
*1300 FILLER_0_38_53
*1301 FILLER_0_38_57
*1302 FILLER_0_38_68
*1303 FILLER_0_38_74
*1304 FILLER_0_38_80
*1305 FILLER_0_38_88
*1306 FILLER_0_38_92
*1307 FILLER_0_38_98
*1308 FILLER_0_3_105
*1309 FILLER_0_3_111
*1310 FILLER_0_3_113
*1311 FILLER_0_3_125
*1312 FILLER_0_3_137
*1313 FILLER_0_3_149
*1314 FILLER_0_3_15
*1315 FILLER_0_3_161
*1316 FILLER_0_3_167
*1317 FILLER_0_3_169
*1318 FILLER_0_3_181
*1319 FILLER_0_3_193
*1320 FILLER_0_3_205
*1321 FILLER_0_3_217
*1322 FILLER_0_3_223
*1323 FILLER_0_3_225
*1324 FILLER_0_3_237
*1325 FILLER_0_3_249
*1326 FILLER_0_3_261
*1327 FILLER_0_3_27
*1328 FILLER_0_3_273
*1329 FILLER_0_3_279
*1330 FILLER_0_3_281
*1331 FILLER_0_3_293
*1332 FILLER_0_3_3
*1333 FILLER_0_3_305
*1334 FILLER_0_3_317
*1335 FILLER_0_3_329
*1336 FILLER_0_3_335
*1337 FILLER_0_3_337
*1338 FILLER_0_3_349
*1339 FILLER_0_3_39
*1340 FILLER_0_3_51
*1341 FILLER_0_3_55
*1342 FILLER_0_3_57
*1343 FILLER_0_3_69
*1344 FILLER_0_3_81
*1345 FILLER_0_3_93
*1346 FILLER_0_4_109
*1347 FILLER_0_4_121
*1348 FILLER_0_4_133
*1349 FILLER_0_4_139
*1350 FILLER_0_4_141
*1351 FILLER_0_4_15
*1352 FILLER_0_4_153
*1353 FILLER_0_4_165
*1354 FILLER_0_4_177
*1355 FILLER_0_4_189
*1356 FILLER_0_4_195
*1357 FILLER_0_4_197
*1358 FILLER_0_4_209
*1359 FILLER_0_4_221
*1360 FILLER_0_4_233
*1361 FILLER_0_4_245
*1362 FILLER_0_4_251
*1363 FILLER_0_4_253
*1364 FILLER_0_4_265
*1365 FILLER_0_4_27
*1366 FILLER_0_4_277
*1367 FILLER_0_4_289
*1368 FILLER_0_4_29
*1369 FILLER_0_4_3
*1370 FILLER_0_4_301
*1371 FILLER_0_4_307
*1372 FILLER_0_4_309
*1373 FILLER_0_4_321
*1374 FILLER_0_4_333
*1375 FILLER_0_4_345
*1376 FILLER_0_4_41
*1377 FILLER_0_4_53
*1378 FILLER_0_4_65
*1379 FILLER_0_4_77
*1380 FILLER_0_4_83
*1381 FILLER_0_4_85
*1382 FILLER_0_4_97
*1383 FILLER_0_5_105
*1384 FILLER_0_5_111
*1385 FILLER_0_5_113
*1386 FILLER_0_5_125
*1387 FILLER_0_5_137
*1388 FILLER_0_5_149
*1389 FILLER_0_5_15
*1390 FILLER_0_5_161
*1391 FILLER_0_5_167
*1392 FILLER_0_5_169
*1393 FILLER_0_5_181
*1394 FILLER_0_5_193
*1395 FILLER_0_5_205
*1396 FILLER_0_5_217
*1397 FILLER_0_5_223
*1398 FILLER_0_5_225
*1399 FILLER_0_5_237
*1400 FILLER_0_5_249
*1401 FILLER_0_5_261
*1402 FILLER_0_5_27
*1403 FILLER_0_5_273
*1404 FILLER_0_5_279
*1405 FILLER_0_5_281
*1406 FILLER_0_5_293
*1407 FILLER_0_5_3
*1408 FILLER_0_5_305
*1409 FILLER_0_5_317
*1410 FILLER_0_5_329
*1411 FILLER_0_5_335
*1412 FILLER_0_5_337
*1413 FILLER_0_5_349
*1414 FILLER_0_5_39
*1415 FILLER_0_5_51
*1416 FILLER_0_5_55
*1417 FILLER_0_5_57
*1418 FILLER_0_5_69
*1419 FILLER_0_5_81
*1420 FILLER_0_5_93
*1421 FILLER_0_6_109
*1422 FILLER_0_6_121
*1423 FILLER_0_6_133
*1424 FILLER_0_6_139
*1425 FILLER_0_6_141
*1426 FILLER_0_6_15
*1427 FILLER_0_6_153
*1428 FILLER_0_6_165
*1429 FILLER_0_6_177
*1430 FILLER_0_6_189
*1431 FILLER_0_6_195
*1432 FILLER_0_6_197
*1433 FILLER_0_6_209
*1434 FILLER_0_6_221
*1435 FILLER_0_6_233
*1436 FILLER_0_6_245
*1437 FILLER_0_6_251
*1438 FILLER_0_6_253
*1439 FILLER_0_6_265
*1440 FILLER_0_6_27
*1441 FILLER_0_6_277
*1442 FILLER_0_6_289
*1443 FILLER_0_6_29
*1444 FILLER_0_6_3
*1445 FILLER_0_6_301
*1446 FILLER_0_6_307
*1447 FILLER_0_6_309
*1448 FILLER_0_6_321
*1449 FILLER_0_6_333
*1450 FILLER_0_6_345
*1451 FILLER_0_6_41
*1452 FILLER_0_6_53
*1453 FILLER_0_6_65
*1454 FILLER_0_6_77
*1455 FILLER_0_6_83
*1456 FILLER_0_6_85
*1457 FILLER_0_6_97
*1458 FILLER_0_7_105
*1459 FILLER_0_7_111
*1460 FILLER_0_7_113
*1461 FILLER_0_7_125
*1462 FILLER_0_7_137
*1463 FILLER_0_7_149
*1464 FILLER_0_7_15
*1465 FILLER_0_7_161
*1466 FILLER_0_7_167
*1467 FILLER_0_7_169
*1468 FILLER_0_7_181
*1469 FILLER_0_7_193
*1470 FILLER_0_7_205
*1471 FILLER_0_7_217
*1472 FILLER_0_7_223
*1473 FILLER_0_7_225
*1474 FILLER_0_7_237
*1475 FILLER_0_7_249
*1476 FILLER_0_7_261
*1477 FILLER_0_7_27
*1478 FILLER_0_7_273
*1479 FILLER_0_7_279
*1480 FILLER_0_7_281
*1481 FILLER_0_7_293
*1482 FILLER_0_7_3
*1483 FILLER_0_7_305
*1484 FILLER_0_7_317
*1485 FILLER_0_7_329
*1486 FILLER_0_7_335
*1487 FILLER_0_7_337