*SPEF "ieee 1481-1999"
*DESIGN "tt_um_jeffdi_seven_segment_seconds"
*DATE "11:11:11 Fri 11 11, 1111"
*VENDOR "OpenRCX"
*PROGRAM "Parallel Extraction"
*VERSION "1.0"
*DESIGN_FLOW "NAME_SCOPE LOCAL" "PIN_CAP NONE"
*DIVIDER /
*DELIMITER :
*BUS_DELIMITER []
*T_UNIT 1 NS
*C_UNIT 1 PF
*R_UNIT 1 OHM
*L_UNIT 1 HENRY

*NAME_MAP
*3 clk
*4 ena
*5 rst_n
*6 ui_in[0]
*7 ui_in[1]
*8 ui_in[2]
*9 ui_in[3]
*10 ui_in[4]
*11 ui_in[5]
*12 ui_in[6]
*13 ui_in[7]
*14 uio_in[0]
*15 uio_in[1]
*16 uio_in[2]
*17 uio_in[3]
*18 uio_in[4]
*19 uio_in[5]
*20 uio_in[6]
*21 uio_in[7]
*22 net15
*23 net16
*24 net17
*25 net18
*26 net19
*27 net20
*28 net21
*29 net22
*30 uio_out[0]
*31 uio_out[1]
*32 uio_out[2]
*33 uio_out[3]
*34 uio_out[4]
*35 uio_out[5]
*36 uio_out[6]
*37 uio_out[7]
*38 uo_out[0]
*39 uo_out[1]
*40 uo_out[2]
*41 uo_out[3]
*42 uo_out[4]
*43 uo_out[5]
*44 uo_out[6]
*45 net14
*46 _000_
*47 _001_
*48 _002_
*49 _003_
*50 _004_
*51 _005_
*52 _006_
*53 _007_
*54 _008_
*55 _009_
*56 _010_
*57 _011_
*58 _012_
*59 _013_
*60 _014_
*61 _015_
*62 _016_
*63 _017_
*64 _018_
*65 _019_
*66 _020_
*67 _021_
*68 _022_
*69 _023_
*70 _024_
*71 _025_
*72 _026_
*73 _027_
*74 _028_
*75 _029_
*76 _030_
*77 _031_
*78 _032_
*79 _033_
*80 _034_
*81 _035_
*82 _036_
*83 _037_
*84 _038_
*85 _039_
*86 _040_
*87 _041_
*88 _042_
*89 _043_
*90 _044_
*91 _045_
*92 _046_
*93 _047_
*94 _048_
*95 _049_
*96 _050_
*97 _051_
*98 _052_
*99 _053_
*100 _054_
*101 _055_
*102 _056_
*103 _057_
*104 _058_
*105 _059_
*106 _060_
*107 _061_
*108 _062_
*109 _063_
*110 _064_
*111 _065_
*112 _066_
*113 _067_
*114 _068_
*115 _069_
*116 _070_
*117 _071_
*118 _072_
*119 _073_
*120 _074_
*121 _075_
*122 _076_
*123 _077_
*124 _078_
*125 _079_
*126 _080_
*127 _081_
*128 _082_
*129 _083_
*130 _084_
*131 _085_
*132 _086_
*133 _087_
*134 _088_
*135 _089_
*136 _090_
*137 _091_
*138 _092_
*139 _093_
*140 _094_
*141 _095_
*142 _096_
*143 _097_
*144 _098_
*145 _099_
*146 _100_
*147 _101_
*148 _102_
*149 _103_
*150 _104_
*151 _105_
*152 _106_
*153 _107_
*154 _108_
*155 _109_
*156 _110_
*157 _111_
*158 _112_
*159 _113_
*160 _114_
*161 _115_
*162 _116_
*163 _117_
*164 _118_
*165 _119_
*166 _120_
*167 _121_
*168 _122_
*169 _123_
*170 _124_
*171 _125_
*172 _126_
*173 _127_
*174 _128_
*175 _129_
*176 _130_
*177 _131_
*178 _132_
*179 _133_
*180 _134_
*181 _135_
*182 _136_
*183 _137_
*184 _138_
*185 _139_
*186 _140_
*187 _141_
*188 _142_
*189 _143_
*190 _144_
*191 _145_
*192 _146_
*193 _147_
*194 _148_
*195 _149_
*196 _150_
*197 _151_
*198 _152_
*199 _153_
*200 _154_
*201 _155_
*202 _156_
*203 _157_
*204 _158_
*205 _159_
*206 clknet_0_clk
*207 clknet_2_0__leaf_clk
*208 clknet_2_1__leaf_clk
*209 clknet_2_2__leaf_clk
*210 clknet_2_3__leaf_clk
*211 net1
*212 net10
*213 net11
*214 net12
*215 net13
*216 net2
*217 net23
*218 net24
*219 net25
*220 net26
*221 net27
*222 net28
*223 net29
*224 net3
*225 net30
*226 net31
*227 net32
*228 net4
*229 net5
*230 net6
*231 net7
*232 net8
*233 net9
*234 second_counter\[0\]
*235 second_counter\[10\]
*236 second_counter\[11\]
*237 second_counter\[12\]
*238 second_counter\[13\]
*239 second_counter\[14\]
*240 second_counter\[15\]
*241 second_counter\[16\]
*242 second_counter\[17\]
*243 second_counter\[18\]
*244 second_counter\[19\]
*245 second_counter\[1\]
*246 second_counter\[20\]
*247 second_counter\[21\]
*248 second_counter\[22\]
*249 second_counter\[23\]
*250 second_counter\[2\]
*251 second_counter\[3\]
*252 second_counter\[4\]
*253 second_counter\[5\]
*254 second_counter\[6\]
*255 second_counter\[7\]
*256 second_counter\[8\]
*257 second_counter\[9\]
*258 seg7\.counter\[0\]
*259 seg7\.counter\[1\]
*260 seg7\.counter\[2\]
*261 seg7\.counter\[3\]
*262 FILLER_0_0_109
*263 FILLER_0_0_113
*264 FILLER_0_0_125
*265 FILLER_0_0_137
*266 FILLER_0_0_141
*267 FILLER_0_0_15
*268 FILLER_0_0_153
*269 FILLER_0_0_165
*270 FILLER_0_0_169
*271 FILLER_0_0_181
*272 FILLER_0_0_193
*273 FILLER_0_0_197
*274 FILLER_0_0_209
*275 FILLER_0_0_221
*276 FILLER_0_0_225
*277 FILLER_0_0_237
*278 FILLER_0_0_249
*279 FILLER_0_0_253
*280 FILLER_0_0_265
*281 FILLER_0_0_27
*282 FILLER_0_0_277
*283 FILLER_0_0_281
*284 FILLER_0_0_29
*285 FILLER_0_0_293
*286 FILLER_0_0_3
*287 FILLER_0_0_305
*288 FILLER_0_0_309
*289 FILLER_0_0_321
*290 FILLER_0_0_333
*291 FILLER_0_0_337
*292 FILLER_0_0_349
*293 FILLER_0_0_41
*294 FILLER_0_0_53
*295 FILLER_0_0_57
*296 FILLER_0_0_69
*297 FILLER_0_0_81
*298 FILLER_0_0_85
*299 FILLER_0_0_97
*300 FILLER_0_10_109
*301 FILLER_0_10_121
*302 FILLER_0_10_133
*303 FILLER_0_10_139
*304 FILLER_0_10_141
*305 FILLER_0_10_15
*306 FILLER_0_10_153
*307 FILLER_0_10_165
*308 FILLER_0_10_177
*309 FILLER_0_10_189
*310 FILLER_0_10_195
*311 FILLER_0_10_197
*312 FILLER_0_10_209
*313 FILLER_0_10_221
*314 FILLER_0_10_233
*315 FILLER_0_10_245
*316 FILLER_0_10_251
*317 FILLER_0_10_253
*318 FILLER_0_10_265
*319 FILLER_0_10_27
*320 FILLER_0_10_277
*321 FILLER_0_10_289
*322 FILLER_0_10_29
*323 FILLER_0_10_3
*324 FILLER_0_10_301
*325 FILLER_0_10_307
*326 FILLER_0_10_309
*327 FILLER_0_10_321
*328 FILLER_0_10_333
*329 FILLER_0_10_345
*330 FILLER_0_10_41
*331 FILLER_0_10_53
*332 FILLER_0_10_65
*333 FILLER_0_10_77
*334 FILLER_0_10_83
*335 FILLER_0_10_85
*336 FILLER_0_10_97
*337 FILLER_0_11_105
*338 FILLER_0_11_111
*339 FILLER_0_11_113
*340 FILLER_0_11_125
*341 FILLER_0_11_137
*342 FILLER_0_11_149
*343 FILLER_0_11_15
*344 FILLER_0_11_161
*345 FILLER_0_11_167
*346 FILLER_0_11_169
*347 FILLER_0_11_181
*348 FILLER_0_11_193
*349 FILLER_0_11_205
*350 FILLER_0_11_217
*351 FILLER_0_11_223
*352 FILLER_0_11_225
*353 FILLER_0_11_237
*354 FILLER_0_11_249
*355 FILLER_0_11_261
*356 FILLER_0_11_27
*357 FILLER_0_11_273
*358 FILLER_0_11_279
*359 FILLER_0_11_281
*360 FILLER_0_11_293
*361 FILLER_0_11_3
*362 FILLER_0_11_305
*363 FILLER_0_11_317
*364 FILLER_0_11_329
*365 FILLER_0_11_335
*366 FILLER_0_11_337
*367 FILLER_0_11_349
*368 FILLER_0_11_39
*369 FILLER_0_11_51
*370 FILLER_0_11_55
*371 FILLER_0_11_57
*372 FILLER_0_11_69
*373 FILLER_0_11_81
*374 FILLER_0_11_93
*375 FILLER_0_12_109
*376 FILLER_0_12_121
*377 FILLER_0_12_133
*378 FILLER_0_12_139
*379 FILLER_0_12_141
*380 FILLER_0_12_15
*381 FILLER_0_12_153
*382 FILLER_0_12_165
*383 FILLER_0_12_177
*384 FILLER_0_12_189
*385 FILLER_0_12_195
*386 FILLER_0_12_197
*387 FILLER_0_12_209
*388 FILLER_0_12_221
*389 FILLER_0_12_233
*390 FILLER_0_12_245
*391 FILLER_0_12_251
*392 FILLER_0_12_253
*393 FILLER_0_12_265
*394 FILLER_0_12_27
*395 FILLER_0_12_277
*396 FILLER_0_12_289
*397 FILLER_0_12_29
*398 FILLER_0_12_3
*399 FILLER_0_12_301
*400 FILLER_0_12_307
*401 FILLER_0_12_309
*402 FILLER_0_12_321
*403 FILLER_0_12_333
*404 FILLER_0_12_345
*405 FILLER_0_12_41
*406 FILLER_0_12_53
*407 FILLER_0_12_65
*408 FILLER_0_12_77
*409 FILLER_0_12_83
*410 FILLER_0_12_85
*411 FILLER_0_12_97
*412 FILLER_0_13_105
*413 FILLER_0_13_111
*414 FILLER_0_13_113
*415 FILLER_0_13_125
*416 FILLER_0_13_137
*417 FILLER_0_13_149
*418 FILLER_0_13_15
*419 FILLER_0_13_161
*420 FILLER_0_13_167
*421 FILLER_0_13_169
*422 FILLER_0_13_181
*423 FILLER_0_13_193
*424 FILLER_0_13_205
*425 FILLER_0_13_217
*426 FILLER_0_13_223
*427 FILLER_0_13_225
*428 FILLER_0_13_237
*429 FILLER_0_13_249
*430 FILLER_0_13_261
*431 FILLER_0_13_27
*432 FILLER_0_13_273
*433 FILLER_0_13_279
*434 FILLER_0_13_281
*435 FILLER_0_13_293
*436 FILLER_0_13_3
*437 FILLER_0_13_305
*438 FILLER_0_13_317
*439 FILLER_0_13_329
*440 FILLER_0_13_335
*441 FILLER_0_13_337
*442 FILLER_0_13_349
*443 FILLER_0_13_39
*444 FILLER_0_13_51
*445 FILLER_0_13_55
*446 FILLER_0_13_57
*447 FILLER_0_13_69
*448 FILLER_0_13_81
*449 FILLER_0_13_93
*450 FILLER_0_14_109
*451 FILLER_0_14_121
*452 FILLER_0_14_133
*453 FILLER_0_14_139
*454 FILLER_0_14_141
*455 FILLER_0_14_15
*456 FILLER_0_14_153
*457 FILLER_0_14_165
*458 FILLER_0_14_177
*459 FILLER_0_14_189
*460 FILLER_0_14_195
*461 FILLER_0_14_197
*462 FILLER_0_14_209
*463 FILLER_0_14_221
*464 FILLER_0_14_233
*465 FILLER_0_14_245
*466 FILLER_0_14_251
*467 FILLER_0_14_253
*468 FILLER_0_14_265
*469 FILLER_0_14_27
*470 FILLER_0_14_277
*471 FILLER_0_14_289
*472 FILLER_0_14_29
*473 FILLER_0_14_3
*474 FILLER_0_14_301
*475 FILLER_0_14_307
*476 FILLER_0_14_309
*477 FILLER_0_14_321
*478 FILLER_0_14_333
*479 FILLER_0_14_345
*480 FILLER_0_14_41
*481 FILLER_0_14_53
*482 FILLER_0_14_65
*483 FILLER_0_14_77
*484 FILLER_0_14_83
*485 FILLER_0_14_85
*486 FILLER_0_14_97
*487 FILLER_0_15_105
*488 FILLER_0_15_111
*489 FILLER_0_15_113
*490 FILLER_0_15_125
*491 FILLER_0_15_137
*492 FILLER_0_15_149
*493 FILLER_0_15_15
*494 FILLER_0_15_161
*495 FILLER_0_15_167
*496 FILLER_0_15_169
*497 FILLER_0_15_181
*498 FILLER_0_15_193
*499 FILLER_0_15_205
*500 FILLER_0_15_217
*501 FILLER_0_15_223
*502 FILLER_0_15_225
*503 FILLER_0_15_237
*504 FILLER_0_15_249
*505 FILLER_0_15_261
*506 FILLER_0_15_27
*507 FILLER_0_15_273
*508 FILLER_0_15_279
*509 FILLER_0_15_281
*510 FILLER_0_15_293
*511 FILLER_0_15_3
*512 FILLER_0_15_305
*513 FILLER_0_15_317
*514 FILLER_0_15_329
*515 FILLER_0_15_335
*516 FILLER_0_15_337
*517 FILLER_0_15_349
*518 FILLER_0_15_39
*519 FILLER_0_15_51
*520 FILLER_0_15_55
*521 FILLER_0_15_57
*522 FILLER_0_15_69
*523 FILLER_0_15_81
*524 FILLER_0_15_93
*525 FILLER_0_16_109
*526 FILLER_0_16_121
*527 FILLER_0_16_133
*528 FILLER_0_16_139
*529 FILLER_0_16_141
*530 FILLER_0_16_15
*531 FILLER_0_16_153
*532 FILLER_0_16_165
*533 FILLER_0_16_177
*534 FILLER_0_16_189
*535 FILLER_0_16_195
*536 FILLER_0_16_197
*537 FILLER_0_16_209
*538 FILLER_0_16_221
*539 FILLER_0_16_233
*540 FILLER_0_16_245
*541 FILLER_0_16_251
*542 FILLER_0_16_253
*543 FILLER_0_16_265
*544 FILLER_0_16_27
*545 FILLER_0_16_277
*546 FILLER_0_16_289
*547 FILLER_0_16_29
*548 FILLER_0_16_3
*549 FILLER_0_16_301
*550 FILLER_0_16_307
*551 FILLER_0_16_309
*552 FILLER_0_16_321
*553 FILLER_0_16_333
*554 FILLER_0_16_345
*555 FILLER_0_16_41
*556 FILLER_0_16_53
*557 FILLER_0_16_65
*558 FILLER_0_16_77
*559 FILLER_0_16_83
*560 FILLER_0_16_85
*561 FILLER_0_16_97
*562 FILLER_0_17_105
*563 FILLER_0_17_111
*564 FILLER_0_17_113
*565 FILLER_0_17_125
*566 FILLER_0_17_137
*567 FILLER_0_17_149
*568 FILLER_0_17_15
*569 FILLER_0_17_161
*570 FILLER_0_17_167
*571 FILLER_0_17_169
*572 FILLER_0_17_181
*573 FILLER_0_17_193
*574 FILLER_0_17_205
*575 FILLER_0_17_217
*576 FILLER_0_17_223
*577 FILLER_0_17_225
*578 FILLER_0_17_237
*579 FILLER_0_17_249
*580 FILLER_0_17_261
*581 FILLER_0_17_27
*582 FILLER_0_17_273
*583 FILLER_0_17_279
*584 FILLER_0_17_281
*585 FILLER_0_17_293
*586 FILLER_0_17_3
*587 FILLER_0_17_305
*588 FILLER_0_17_317
*589 FILLER_0_17_329
*590 FILLER_0_17_335
*591 FILLER_0_17_337
*592 FILLER_0_17_349
*593 FILLER_0_17_39
*594 FILLER_0_17_51
*595 FILLER_0_17_55
*596 FILLER_0_17_57
*597 FILLER_0_17_69
*598 FILLER_0_17_81
*599 FILLER_0_17_93
*600 FILLER_0_18_109
*601 FILLER_0_18_121
*602 FILLER_0_18_133
*603 FILLER_0_18_139
*604 FILLER_0_18_141
*605 FILLER_0_18_15
*606 FILLER_0_18_153
*607 FILLER_0_18_165
*608 FILLER_0_18_177
*609 FILLER_0_18_189
*610 FILLER_0_18_195
*611 FILLER_0_18_197
*612 FILLER_0_18_209
*613 FILLER_0_18_221
*614 FILLER_0_18_233
*615 FILLER_0_18_245
*616 FILLER_0_18_251
*617 FILLER_0_18_253
*618 FILLER_0_18_265
*619 FILLER_0_18_27
*620 FILLER_0_18_277
*621 FILLER_0_18_289
*622 FILLER_0_18_29
*623 FILLER_0_18_3
*624 FILLER_0_18_301
*625 FILLER_0_18_307
*626 FILLER_0_18_309
*627 FILLER_0_18_321
*628 FILLER_0_18_333
*629 FILLER_0_18_345
*630 FILLER_0_18_41
*631 FILLER_0_18_53
*632 FILLER_0_18_65
*633 FILLER_0_18_77
*634 FILLER_0_18_83
*635 FILLER_0_18_85
*636 FILLER_0_18_97
*637 FILLER_0_19_105
*638 FILLER_0_19_111
*639 FILLER_0_19_113
*640 FILLER_0_19_125
*641 FILLER_0_19_137
*642 FILLER_0_19_149
*643 FILLER_0_19_15
*644 FILLER_0_19_161
*645 FILLER_0_19_167
*646 FILLER_0_19_169
*647 FILLER_0_19_181
*648 FILLER_0_19_193
*649 FILLER_0_19_205
*650 FILLER_0_19_217
*651 FILLER_0_19_223
*652 FILLER_0_19_225
*653 FILLER_0_19_237
*654 FILLER_0_19_249
*655 FILLER_0_19_261
*656 FILLER_0_19_27
*657 FILLER_0_19_273
*658 FILLER_0_19_279
*659 FILLER_0_19_281
*660 FILLER_0_19_293
*661 FILLER_0_19_3
*662 FILLER_0_19_305
*663 FILLER_0_19_317
*664 FILLER_0_19_329
*665 FILLER_0_19_335
*666 FILLER_0_19_337
*667 FILLER_0_19_349
*668 FILLER_0_19_39
*669 FILLER_0_19_51
*670 FILLER_0_19_55
*671 FILLER_0_19_57
*672 FILLER_0_19_69
*673 FILLER_0_19_81
*674 FILLER_0_19_93
*675 FILLER_0_1_105
*676 FILLER_0_1_111
*677 FILLER_0_1_113
*678 FILLER_0_1_125
*679 FILLER_0_1_137
*680 FILLER_0_1_149
*681 FILLER_0_1_15
*682 FILLER_0_1_161
*683 FILLER_0_1_167
*684 FILLER_0_1_169
*685 FILLER_0_1_181
*686 FILLER_0_1_193
*687 FILLER_0_1_205
*688 FILLER_0_1_217
*689 FILLER_0_1_223
*690 FILLER_0_1_225
*691 FILLER_0_1_237
*692 FILLER_0_1_249
*693 FILLER_0_1_261
*694 FILLER_0_1_27
*695 FILLER_0_1_273
*696 FILLER_0_1_279
*697 FILLER_0_1_281
*698 FILLER_0_1_293
*699 FILLER_0_1_3
*700 FILLER_0_1_305
*701 FILLER_0_1_317
*702 FILLER_0_1_329
*703 FILLER_0_1_335
*704 FILLER_0_1_337
*705 FILLER_0_1_349
*706 FILLER_0_1_39
*707 FILLER_0_1_51
*708 FILLER_0_1_55
*709 FILLER_0_1_57
*710 FILLER_0_1_69
*711 FILLER_0_1_81
*712 FILLER_0_1_93
*713 FILLER_0_20_109
*714 FILLER_0_20_121
*715 FILLER_0_20_133
*716 FILLER_0_20_139
*717 FILLER_0_20_141
*718 FILLER_0_20_15
*719 FILLER_0_20_153
*720 FILLER_0_20_165
*721 FILLER_0_20_177
*722 FILLER_0_20_189
*723 FILLER_0_20_195
*724 FILLER_0_20_197
*725 FILLER_0_20_209
*726 FILLER_0_20_221
*727 FILLER_0_20_233
*728 FILLER_0_20_245
*729 FILLER_0_20_251
*730 FILLER_0_20_253
*731 FILLER_0_20_265
*732 FILLER_0_20_27
*733 FILLER_0_20_277
*734 FILLER_0_20_289
*735 FILLER_0_20_29
*736 FILLER_0_20_3
*737 FILLER_0_20_301
*738 FILLER_0_20_307
*739 FILLER_0_20_309
*740 FILLER_0_20_321
*741 FILLER_0_20_333
*742 FILLER_0_20_345
*743 FILLER_0_20_41
*744 FILLER_0_20_53
*745 FILLER_0_20_65
*746 FILLER_0_20_77
*747 FILLER_0_20_83
*748 FILLER_0_20_85
*749 FILLER_0_20_97
*750 FILLER_0_21_105
*751 FILLER_0_21_111
*752 FILLER_0_21_113
*753 FILLER_0_21_125
*754 FILLER_0_21_137
*755 FILLER_0_21_149
*756 FILLER_0_21_15
*757 FILLER_0_21_161
*758 FILLER_0_21_167
*759 FILLER_0_21_169
*760 FILLER_0_21_181
*761 FILLER_0_21_193
*762 FILLER_0_21_205
*763 FILLER_0_21_217
*764 FILLER_0_21_223
*765 FILLER_0_21_225
*766 FILLER_0_21_237
*767 FILLER_0_21_249
*768 FILLER_0_21_261
*769 FILLER_0_21_27
*770 FILLER_0_21_273
*771 FILLER_0_21_279
*772 FILLER_0_21_281
*773 FILLER_0_21_293
*774 FILLER_0_21_3
*775 FILLER_0_21_305
*776 FILLER_0_21_317
*777 FILLER_0_21_329
*778 FILLER_0_21_335
*779 FILLER_0_21_337
*780 FILLER_0_21_349
*781 FILLER_0_21_39
*782 FILLER_0_21_51
*783 FILLER_0_21_55
*784 FILLER_0_21_57
*785 FILLER_0_21_69
*786 FILLER_0_21_81
*787 FILLER_0_21_93
*788 FILLER_0_22_109
*789 FILLER_0_22_121
*790 FILLER_0_22_133
*791 FILLER_0_22_139
*792 FILLER_0_22_141
*793 FILLER_0_22_15
*794 FILLER_0_22_153
*795 FILLER_0_22_165
*796 FILLER_0_22_177
*797 FILLER_0_22_189
*798 FILLER_0_22_195
*799 FILLER_0_22_197
*800 FILLER_0_22_209
*801 FILLER_0_22_221
*802 FILLER_0_22_233
*803 FILLER_0_22_245
*804 FILLER_0_22_251
*805 FILLER_0_22_253
*806 FILLER_0_22_265
*807 FILLER_0_22_27
*808 FILLER_0_22_277
*809 FILLER_0_22_289
*810 FILLER_0_22_29
*811 FILLER_0_22_3
*812 FILLER_0_22_301
*813 FILLER_0_22_307
*814 FILLER_0_22_309
*815 FILLER_0_22_321
*816 FILLER_0_22_333
*817 FILLER_0_22_345
*818 FILLER_0_22_41
*819 FILLER_0_22_53
*820 FILLER_0_22_65
*821 FILLER_0_22_77
*822 FILLER_0_22_83
*823 FILLER_0_22_85
*824 FILLER_0_22_97
*825 FILLER_0_23_105
*826 FILLER_0_23_111
*827 FILLER_0_23_113
*828 FILLER_0_23_125
*829 FILLER_0_23_137
*830 FILLER_0_23_149
*831 FILLER_0_23_15
*832 FILLER_0_23_161
*833 FILLER_0_23_167
*834 FILLER_0_23_169
*835 FILLER_0_23_181
*836 FILLER_0_23_193
*837 FILLER_0_23_205
*838 FILLER_0_23_217
*839 FILLER_0_23_223
*840 FILLER_0_23_225
*841 FILLER_0_23_237
*842 FILLER_0_23_249
*843 FILLER_0_23_261
*844 FILLER_0_23_27
*845 FILLER_0_23_273
*846 FILLER_0_23_279
*847 FILLER_0_23_281
*848 FILLER_0_23_293
*849 FILLER_0_23_3
*850 FILLER_0_23_305
*851 FILLER_0_23_317
*852 FILLER_0_23_329
*853 FILLER_0_23_335
*854 FILLER_0_23_337
*855 FILLER_0_23_349
*856 FILLER_0_23_39
*857 FILLER_0_23_51
*858 FILLER_0_23_55
*859 FILLER_0_23_57
*860 FILLER_0_23_69
*861 FILLER_0_23_81
*862 FILLER_0_23_93
*863 FILLER_0_24_109
*864 FILLER_0_24_121
*865 FILLER_0_24_133
*866 FILLER_0_24_139
*867 FILLER_0_24_141
*868 FILLER_0_24_15
*869 FILLER_0_24_153
*870 FILLER_0_24_165
*871 FILLER_0_24_177
*872 FILLER_0_24_189
*873 FILLER_0_24_195
*874 FILLER_0_24_197
*875 FILLER_0_24_209
*876 FILLER_0_24_221
*877 FILLER_0_24_233
*878 FILLER_0_24_245
*879 FILLER_0_24_251
*880 FILLER_0_24_253
*881 FILLER_0_24_265
*882 FILLER_0_24_27
*883 FILLER_0_24_277
*884 FILLER_0_24_289
*885 FILLER_0_24_29
*886 FILLER_0_24_3
*887 FILLER_0_24_301
*888 FILLER_0_24_307
*889 FILLER_0_24_309
*890 FILLER_0_24_321
*891 FILLER_0_24_333
*892 FILLER_0_24_345
*893 FILLER_0_24_41
*894 FILLER_0_24_53
*895 FILLER_0_24_65
*896 FILLER_0_24_77
*897 FILLER_0_24_83
*898 FILLER_0_24_85
*899 FILLER_0_24_97
*900 FILLER_0_25_105
*901 FILLER_0_25_111
*902 FILLER_0_25_113
*903 FILLER_0_25_125
*904 FILLER_0_25_137
*905 FILLER_0_25_149
*906 FILLER_0_25_15
*907 FILLER_0_25_161
*908 FILLER_0_25_167
*909 FILLER_0_25_169
*910 FILLER_0_25_181
*911 FILLER_0_25_193
*912 FILLER_0_25_205
*913 FILLER_0_25_217
*914 FILLER_0_25_223
*915 FILLER_0_25_225
*916 FILLER_0_25_237
*917 FILLER_0_25_249
*918 FILLER_0_25_261
*919 FILLER_0_25_27
*920 FILLER_0_25_273
*921 FILLER_0_25_279
*922 FILLER_0_25_281
*923 FILLER_0_25_293
*924 FILLER_0_25_3
*925 FILLER_0_25_305
*926 FILLER_0_25_317
*927 FILLER_0_25_329
*928 FILLER_0_25_335
*929 FILLER_0_25_337
*930 FILLER_0_25_349
*931 FILLER_0_25_39
*932 FILLER_0_25_51
*933 FILLER_0_25_55
*934 FILLER_0_25_57
*935 FILLER_0_25_69
*936 FILLER_0_25_81
*937 FILLER_0_25_93
*938 FILLER_0_26_109
*939 FILLER_0_26_121
*940 FILLER_0_26_133
*941 FILLER_0_26_139
*942 FILLER_0_26_141
*943 FILLER_0_26_15
*944 FILLER_0_26_153
*945 FILLER_0_26_165
*946 FILLER_0_26_177
*947 FILLER_0_26_189
*948 FILLER_0_26_195
*949 FILLER_0_26_197
*950 FILLER_0_26_209
*951 FILLER_0_26_221
*952 FILLER_0_26_233
*953 FILLER_0_26_245
*954 FILLER_0_26_251
*955 FILLER_0_26_253
*956 FILLER_0_26_265
*957 FILLER_0_26_27
*958 FILLER_0_26_277
*959 FILLER_0_26_289
*960 FILLER_0_26_29
*961 FILLER_0_26_296
*962 FILLER_0_26_3
*963 FILLER_0_26_309
*964 FILLER_0_26_321
*965 FILLER_0_26_333
*966 FILLER_0_26_345
*967 FILLER_0_26_41
*968 FILLER_0_26_53
*969 FILLER_0_26_65
*970 FILLER_0_26_77
*971 FILLER_0_26_83
*972 FILLER_0_26_85
*973 FILLER_0_26_97
*974 FILLER_0_27_105
*975 FILLER_0_27_111
*976 FILLER_0_27_113
*977 FILLER_0_27_125
*978 FILLER_0_27_137
*979 FILLER_0_27_149
*980 FILLER_0_27_15
*981 FILLER_0_27_161
*982 FILLER_0_27_167
*983 FILLER_0_27_169
*984 FILLER_0_27_181
*985 FILLER_0_27_193
*986 FILLER_0_27_205
*987 FILLER_0_27_217
*988 FILLER_0_27_223
*989 FILLER_0_27_225
*990 FILLER_0_27_242
*991 FILLER_0_27_254
*992 FILLER_0_27_266
*993 FILLER_0_27_27
*994 FILLER_0_27_278
*995 FILLER_0_27_281
*996 FILLER_0_27_287
*997 FILLER_0_27_3
*998 FILLER_0_27_304
*999 FILLER_0_27_310
*1000 FILLER_0_27_327
*1001 FILLER_0_27_335
*1002 FILLER_0_27_337
*1003 FILLER_0_27_349
*1004 FILLER_0_27_39
*1005 FILLER_0_27_51
*1006 FILLER_0_27_55
*1007 FILLER_0_27_57
*1008 FILLER_0_27_69
*1009 FILLER_0_27_81
*1010 FILLER_0_27_93
*1011 FILLER_0_28_101
*1012 FILLER_0_28_118
*1013 FILLER_0_28_130
*1014 FILLER_0_28_138
*1015 FILLER_0_28_141
*1016 FILLER_0_28_147
*1017 FILLER_0_28_15
*1018 FILLER_0_28_168
*1019 FILLER_0_28_180
*1020 FILLER_0_28_192
*1021 FILLER_0_28_197
*1022 FILLER_0_28_209
*1023 FILLER_0_28_217
*1024 FILLER_0_28_237
*1025 FILLER_0_28_247
*1026 FILLER_0_28_27
*1027 FILLER_0_28_289
*1028 FILLER_0_28_29
*1029 FILLER_0_28_3
*1030 FILLER_0_28_304
*1031 FILLER_0_28_309
*1032 FILLER_0_28_313
*1033 FILLER_0_28_320
*1034 FILLER_0_28_331
*1035 FILLER_0_28_41
*1036 FILLER_0_28_53
*1037 FILLER_0_28_65
*1038 FILLER_0_28_77
*1039 FILLER_0_28_83
*1040 FILLER_0_28_85
*1041 FILLER_0_28_97
*1042 FILLER_0_29_105
*1043 FILLER_0_29_110
*1044 FILLER_0_29_113
*1045 FILLER_0_29_138
*1046 FILLER_0_29_15
*1047 FILLER_0_29_162
*1048 FILLER_0_29_185
*1049 FILLER_0_29_197
*1050 FILLER_0_29_205
*1051 FILLER_0_29_210
*1052 FILLER_0_29_222
*1053 FILLER_0_29_225
*1054 FILLER_0_29_229
*1055 FILLER_0_29_249
*1056 FILLER_0_29_259
*1057 FILLER_0_29_27
*1058 FILLER_0_29_281
*1059 FILLER_0_29_296
*1060 FILLER_0_29_3
*1061 FILLER_0_29_310
*1062 FILLER_0_29_318
*1063 FILLER_0_29_326
*1064 FILLER_0_29_39
*1065 FILLER_0_29_51
*1066 FILLER_0_29_55
*1067 FILLER_0_29_57
*1068 FILLER_0_29_69
*1069 FILLER_0_29_81
*1070 FILLER_0_29_93
*1071 FILLER_0_2_109
*1072 FILLER_0_2_121
*1073 FILLER_0_2_133
*1074 FILLER_0_2_139
*1075 FILLER_0_2_141
*1076 FILLER_0_2_15
*1077 FILLER_0_2_153
*1078 FILLER_0_2_165
*1079 FILLER_0_2_177
*1080 FILLER_0_2_189
*1081 FILLER_0_2_195
*1082 FILLER_0_2_197
*1083 FILLER_0_2_209
*1084 FILLER_0_2_221
*1085 FILLER_0_2_233
*1086 FILLER_0_2_245
*1087 FILLER_0_2_251
*1088 FILLER_0_2_253
*1089 FILLER_0_2_265
*1090 FILLER_0_2_27
*1091 FILLER_0_2_277
*1092 FILLER_0_2_289
*1093 FILLER_0_2_29
*1094 FILLER_0_2_3
*1095 FILLER_0_2_301
*1096 FILLER_0_2_307
*1097 FILLER_0_2_309
*1098 FILLER_0_2_321
*1099 FILLER_0_2_333
*1100 FILLER_0_2_345
*1101 FILLER_0_2_41
*1102 FILLER_0_2_53
*1103 FILLER_0_2_65
*1104 FILLER_0_2_77
*1105 FILLER_0_2_83
*1106 FILLER_0_2_85
*1107 FILLER_0_2_97
*1108 FILLER_0_30_115
*1109 FILLER_0_30_123
*1110 FILLER_0_30_135
*1111 FILLER_0_30_139
*1112 FILLER_0_30_141
*1113 FILLER_0_30_15
*1114 FILLER_0_30_155
*1115 FILLER_0_30_167
*1116 FILLER_0_30_179
*1117 FILLER_0_30_183
*1118 FILLER_0_30_194
*1119 FILLER_0_30_220
*1120 FILLER_0_30_232
*1121 FILLER_0_30_238
*1122 FILLER_0_30_269
*1123 FILLER_0_30_27
*1124 FILLER_0_30_287
*1125 FILLER_0_30_29
*1126 FILLER_0_30_291
*1127 FILLER_0_30_3
*1128 FILLER_0_30_303
*1129 FILLER_0_30_307
*1130 FILLER_0_30_309
*1131 FILLER_0_30_326
*1132 FILLER_0_30_41
*1133 FILLER_0_30_53
*1134 FILLER_0_30_65
*1135 FILLER_0_30_77
*1136 FILLER_0_30_83
*1137 FILLER_0_30_85
*1138 FILLER_0_30_97
*1139 FILLER_0_31_113
*1140 FILLER_0_31_121
*1141 FILLER_0_31_142
*1142 FILLER_0_31_148
*1143 FILLER_0_31_15
*1144 FILLER_0_31_152
*1145 FILLER_0_31_164
*1146 FILLER_0_31_198
*1147 FILLER_0_31_206
*1148 FILLER_0_31_213
*1149 FILLER_0_31_221
*1150 FILLER_0_31_232
*1151 FILLER_0_31_244
*1152 FILLER_0_31_256
*1153 FILLER_0_31_264
*1154 FILLER_0_31_27
*1155 FILLER_0_31_275
*1156 FILLER_0_31_279
*1157 FILLER_0_31_284
*1158 FILLER_0_31_296
*1159 FILLER_0_31_3
*1160 FILLER_0_31_311
*1161 FILLER_0_31_323
*1162 FILLER_0_31_330
*1163 FILLER_0_31_337
*1164 FILLER_0_31_349
*1165 FILLER_0_31_39
*1166 FILLER_0_31_51
*1167 FILLER_0_31_55
*1168 FILLER_0_31_57
*1169 FILLER_0_31_69
*1170 FILLER_0_31_81
*1171 FILLER_0_31_93
*1172 FILLER_0_32_116
*1173 FILLER_0_32_124
*1174 FILLER_0_32_134
*1175 FILLER_0_32_141
*1176 FILLER_0_32_15
*1177 FILLER_0_32_162
*1178 FILLER_0_32_168
*1179 FILLER_0_32_185
*1180 FILLER_0_32_193
*1181 FILLER_0_32_200
*1182 FILLER_0_32_204
*1183 FILLER_0_32_247
*1184 FILLER_0_32_251
*1185 FILLER_0_32_253
*1186 FILLER_0_32_259
*1187 FILLER_0_32_27
*1188 FILLER_0_32_284
*1189 FILLER_0_32_29
*1190 FILLER_0_32_299
*1191 FILLER_0_32_3
*1192 FILLER_0_32_41
*1193 FILLER_0_32_53
*1194 FILLER_0_32_65
*1195 FILLER_0_32_77
*1196 FILLER_0_32_83
*1197 FILLER_0_32_85
*1198 FILLER_0_32_97
*1199 FILLER_0_33_100
*1200 FILLER_0_33_108
*1201 FILLER_0_33_113
*1202 FILLER_0_33_131
*1203 FILLER_0_33_142
*1204 FILLER_0_33_146
*1205 FILLER_0_33_15
*1206 FILLER_0_33_157
*1207 FILLER_0_33_167
*1208 FILLER_0_33_169
*1209 FILLER_0_33_181
*1210 FILLER_0_33_189
*1211 FILLER_0_33_197
*1212 FILLER_0_33_209
*1213 FILLER_0_33_216
*1214 FILLER_0_33_242
*1215 FILLER_0_33_257
*1216 FILLER_0_33_266
*1217 FILLER_0_33_27
*1218 FILLER_0_33_279
*1219 FILLER_0_33_281
*1220 FILLER_0_33_292
*1221 FILLER_0_33_3
*1222 FILLER_0_33_304
*1223 FILLER_0_33_316
*1224 FILLER_0_33_337
*1225 FILLER_0_33_349
*1226 FILLER_0_33_39
*1227 FILLER_0_33_51
*1228 FILLER_0_33_55
*1229 FILLER_0_33_57
*1230 FILLER_0_33_69
*1231 FILLER_0_33_81
*1232 FILLER_0_33_92
*1233 FILLER_0_34_102
*1234 FILLER_0_34_109
*1235 FILLER_0_34_137
*1236 FILLER_0_34_15
*1237 FILLER_0_34_157
*1238 FILLER_0_34_181
*1239 FILLER_0_34_193
*1240 FILLER_0_34_212
*1241 FILLER_0_34_216
*1242 FILLER_0_34_227
*1243 FILLER_0_34_234
*1244 FILLER_0_34_246
*1245 FILLER_0_34_250
*1246 FILLER_0_34_253
*1247 FILLER_0_34_259
*1248 FILLER_0_34_27
*1249 FILLER_0_34_283
*1250 FILLER_0_34_29
*1251 FILLER_0_34_291
*1252 FILLER_0_34_299
*1253 FILLER_0_34_3
*1254 FILLER_0_34_307
*1255 FILLER_0_34_309
*1256 FILLER_0_34_315
*1257 FILLER_0_34_319
*1258 FILLER_0_34_325
*1259 FILLER_0_34_332
*1260 FILLER_0_34_41
*1261 FILLER_0_34_53
*1262 FILLER_0_34_65
*1263 FILLER_0_34_77
*1264 FILLER_0_34_83
*1265 FILLER_0_34_85
*1266 FILLER_0_35_104
*1267 FILLER_0_35_118
*1268 FILLER_0_35_122
*1269 FILLER_0_35_126
*1270 FILLER_0_35_136
*1271 FILLER_0_35_148
*1272 FILLER_0_35_15
*1273 FILLER_0_35_157
*1274 FILLER_0_35_165
*1275 FILLER_0_35_169
*1276 FILLER_0_35_184
*1277 FILLER_0_35_202
*1278 FILLER_0_35_206
*1279 FILLER_0_35_218
*1280 FILLER_0_35_232
*1281 FILLER_0_35_240
*1282 FILLER_0_35_259
*1283 FILLER_0_35_269
*1284 FILLER_0_35_27
*1285 FILLER_0_35_276
*1286 FILLER_0_35_281
*1287 FILLER_0_35_285
*1288 FILLER_0_35_3
*1289 FILLER_0_35_300
*1290 FILLER_0_35_308
*1291 FILLER_0_35_320
*1292 FILLER_0_35_335
*1293 FILLER_0_35_345
*1294 FILLER_0_35_39
*1295 FILLER_0_35_51
*1296 FILLER_0_35_55
*1297 FILLER_0_35_57
*1298 FILLER_0_35_69
*1299 FILLER_0_35_81
*1300 FILLER_0_35_93
*1301 FILLER_0_35_99
*1302 FILLER_0_36_141
*1303 FILLER_0_36_15
*1304 FILLER_0_36_166
*1305 FILLER_0_36_170
*1306 FILLER_0_36_182
*1307 FILLER_0_36_197
*1308 FILLER_0_36_205
*1309 FILLER_0_36_232
*1310 FILLER_0_36_244
*1311 FILLER_0_36_262
*1312 FILLER_0_36_27
*1313 FILLER_0_36_276
*1314 FILLER_0_36_29
*1315 FILLER_0_36_294
*1316 FILLER_0_36_3
*1317 FILLER_0_36_300
*1318 FILLER_0_36_304
*1319 FILLER_0_36_309
*1320 FILLER_0_36_321
*1321 FILLER_0_36_339
*1322 FILLER_0_36_41
*1323 FILLER_0_36_53
*1324 FILLER_0_36_65
*1325 FILLER_0_36_77
*1326 FILLER_0_36_83
*1327 FILLER_0_36_85
*1328 FILLER_0_37_105
*1329 FILLER_0_37_111
*1330 FILLER_0_37_113
*1331 FILLER_0_37_136
*1332 FILLER_0_37_148
*1333 FILLER_0_37_15
*1334 FILLER_0_37_160
*1335 FILLER_0_37_169
*1336 FILLER_0_37_181
*1337 FILLER_0_37_204
*1338 FILLER_0_37_216
*1339 FILLER_0_37_231
*1340 FILLER_0_37_253
*1341 FILLER_0_37_263
*1342 FILLER_0_37_267
*1343 FILLER_0_37_27
*1344 FILLER_0_37_271
*1345 FILLER_0_37_279
*1346 FILLER_0_37_281
*1347 FILLER_0_37_3
*1348 FILLER_0_37_308
*1349 FILLER_0_37_345
*1350 FILLER_0_37_39
*1351 FILLER_0_37_51
*1352 FILLER_0_37_55
*1353 FILLER_0_37_57
*1354 FILLER_0_37_69
*1355 FILLER_0_37_81
*1356 FILLER_0_37_93
*1357 FILLER_0_38_104
*1358 FILLER_0_38_108
*1359 FILLER_0_38_119
*1360 FILLER_0_38_126
*1361 FILLER_0_38_141
*1362 FILLER_0_38_15
*1363 FILLER_0_38_172
*1364 FILLER_0_38_191
*1365 FILLER_0_38_195
*1366 FILLER_0_38_197
*1367 FILLER_0_38_203
*1368 FILLER_0_38_221
*1369 FILLER_0_38_244
*1370 FILLER_0_38_253
*1371 FILLER_0_38_27
*1372 FILLER_0_38_273
*1373 FILLER_0_38_278
*1374 FILLER_0_38_29
*1375 FILLER_0_38_3
*1376 FILLER_0_38_307
*1377 FILLER_0_38_316
*1378 FILLER_0_38_324
*1379 FILLER_0_38_335
*1380 FILLER_0_38_340
*1381 FILLER_0_38_348
*1382 FILLER_0_38_41
*1383 FILLER_0_38_53
*1384 FILLER_0_38_57
*1385 FILLER_0_38_68
*1386 FILLER_0_38_74
*1387 FILLER_0_38_80
*1388 FILLER_0_38_88
*1389 FILLER_0_38_92
*1390 FILLER_0_38_98
*1391 FILLER_0_3_105
*1392 FILLER_0_3_111
*1393 FILLER_0_3_113
*1394 FILLER_0_3_125
*1395 FILLER_0_3_137
*1396 FILLER_0_3_149
*1397 FILLER_0_3_15
*1398 FILLER_0_3_161
*1399 FILLER_0_3_167
*1400 FILLER_0_3_169
*1401 FILLER_0_3_181
*1402 FILLER_0_3_193
*1403 FILLER_0_3_205
*1404 FILLER_0_3_217
*1405 FILLER_0_3_223
*1406 FILLER_0_3_225
*1407 FILLER_0_3_237
*1408 FILLER_0_3_249
*1409 FILLER_0_3_261
*1410 FILLER_0_3_27
*1411 FILLER_0_3_273
*1412 FILLER_0_3_279
*1413 FILLER_0_3_281
*1414 FILLER_0_3_293
*1415 FILLER_0_3_3
*1416 FILLER_0_3_305
*1417 FILLER_0_3_317
*1418 FILLER_0_3_329
*1419 FILLER_0_3_335
*1420 FILLER_0_3_337
*1421 FILLER_0_3_349
*1422 FILLER_0_3_39
*1423 FILLER_0_3_51
*1424 FILLER_0_3_55
*1425 FILLER_0_3_57
*1426 FILLER_0_3_69
*1427 FILLER_0_3_81
*1428 FILLER_0_3_93
*1429 FILLER_0_4_109
*1430 FILLER_0_4_121
*1431 FILLER_0_4_133
*1432 FILLER_0_4_139
*1433 FILLER_0_4_141
*1434 FILLER_0_4_15
*1435 FILLER_0_4_153
*1436 FILLER_0_4_165
*1437 FILLER_0_4_177
*1438 FILLER_0_4_189
*1439 FILLER_0_4_195
*1440 FILLER_0_4_197
*1441 FILLER_0_4_209
*1442 FILLER_0_4_221
*1443 FILLER_0_4_233
*1444 FILLER_0_4_245
*1445 FILLER_0_4_251
*1446 FILLER_0_4_253
*1447 FILLER_0_4_265
*1448 FILLER_0_4_27
*1449 FILLER_0_4_277
*1450 FILLER_0_4_289
*1451 FILLER_0_4_29
*1452 FILLER_0_4_3
*1453 FILLER_0_4_301
*1454 FILLER_0_4_307
*1455 FILLER_0_4_309
*1456 FILLER_0_4_321
*1457 FILLER_0_4_333
*1458 FILLER_0_4_345
*1459 FILLER_0_4_41
*1460 FILLER_0_4_53
*1461 FILLER_0_4_65
*1462 FILLER_0_4_77
*1463 FILLER_0_4_83
*1464 FILLER_0_4_85
*1465 FILLER_0_4_97
*1466 FILLER_0_5_105
*1467 FILLER_0_5_111
*1468 FILLER_0_5_113
*1469 FILLER_0_5_125
*1470 FILLER_0_5_137
*1471 FILLER_0_5_149
*1472 FILLER_0_5_15
*1473 FILLER_0_5_161
*1474 FILLER_0_5_167
*1475 FILLER_0_5_169
*1476 FILLER_0_5_181
*1477 FILLER_0_5_193
*1478 FILLER_0_5_205
*1479 FILLER_0_5_217
*1480 FILLER_0_5_223
*1481 FILLER_0_5_225
*1482 FILLER_0_5_237
*1483 FILLER_0_5_249
*1484 FILLER_0_5_261
*1485 FILLER_0_5_27
*1486 FILLER_0_5_273
*1487 FILLER_0_5_279
*1488 FILLER_0_5_281
*1489 FILLER_0_5_293
*1490 FILLER_0_5_3
*1491 FILLER_0_5_305
*1492 FILLER_0_5_317
*1493 FILLER_0_5_329
*1494 FILLER_0_5_335
*1495 FILLER_0_5_337
*1496 FILLER_0_5_349
*1497 FILLER_0_5_39
*1498 FILLER_0_5_51
*1499 FILLER_0_5_55
*1500 FILLER_0_5_57
*1501 FILLER_0_5_69
*1502 FILLER_0_5_81
*1503 FILLER_0_5_93
*1504 FILLER_0_6_109
*1505 FILLER_0_6_121
*1506 FILLER_0_6_133
*1507 FILLER_0_6_139
*1508 FILLER_0_6_141
*1509 FILLER_0_6_15
*1510 FILLER_0_6_153
*1511 FILLER_0_6_165
*1512 FILLER_0_6_177
*1513 FILLER_0_6_189
*1514 FILLER_0_6_195
*1515 FILLER_0_6_197
*1516 FILLER_0_6_209
*1517 FILLER_0_6_221
*1518 FILLER_0_6_233
*1519 FILLER_0_6_245
*1520 FILLER_0_6_251
*1521 FILLER_0_6_253
*1522 FILLER_0_6_265