*SPEF "ieee 1481-1999"
*DESIGN "tt_um_mvm"
*DATE "11:11:11 Fri 11 11, 1111"
*VENDOR "OpenRCX"
*PROGRAM "Parallel Extraction"
*VERSION "1.0"
*DESIGN_FLOW "NAME_SCOPE LOCAL" "PIN_CAP NONE"
*DIVIDER /
*DELIMITER :
*BUS_DELIMITER []
*T_UNIT 1 NS
*C_UNIT 1 PF
*R_UNIT 1 OHM
*L_UNIT 1 HENRY

*NAME_MAP
*3 clk
*4 ena
*5 rst_n
*6 ui_in[0]
*7 ui_in[1]
*8 ui_in[2]
*9 ui_in[3]
*10 ui_in[4]
*11 ui_in[5]
*12 ui_in[6]
*13 ui_in[7]
*14 uio_in[0]
*15 uio_in[1]
*16 uio_in[2]
*17 uio_in[3]
*18 uio_in[4]
*19 uio_in[5]
*20 uio_in[6]
*21 uio_in[7]
*22 net36
*23 net37
*24 net24
*25 net25
*26 net26
*27 net27
*28 net28
*29 net29
*30 uio_out[0]
*31 uio_out[1]
*32 net30
*33 net31
*34 net32
*35 net33
*36 net34
*37 net35
*38 uo_out[0]
*39 uo_out[1]
*40 uo_out[2]
*41 uo_out[3]
*42 uo_out[4]
*43 uo_out[5]
*44 uo_out[6]
*45 uo_out[7]
*46 _0000_
*47 _0001_
*48 _0002_
*49 _0003_
*50 _0004_
*51 _0005_
*52 _0006_
*53 _0007_
*54 _0008_
*55 _0009_
*56 _0010_
*57 _0011_
*58 _0012_
*59 _0013_
*60 _0014_
*61 _0015_
*62 _0016_
*63 _0017_
*64 _0018_
*65 _0019_
*66 _0020_
*67 _0021_
*68 _0022_
*69 _0023_
*70 _0024_
*71 _0025_
*72 _0026_
*73 _0027_
*74 _0028_
*75 _0029_
*76 _0030_
*77 _0031_
*78 _0032_
*79 _0033_
*80 _0034_
*81 _0035_
*82 _0036_
*83 _0037_
*84 _0038_
*85 _0039_
*86 _0040_
*87 _0041_
*88 _0042_
*89 _0043_
*90 _0044_
*91 _0045_
*92 _0046_
*93 _0047_
*94 _0048_
*95 _0049_
*96 _0050_
*97 _0051_
*98 _0052_
*99 _0053_
*100 _0054_
*101 _0055_
*102 _0056_
*103 _0057_
*104 _0058_
*105 _0059_
*106 _0060_
*107 _0061_
*108 _0062_
*109 _0063_
*110 _0064_
*111 _0065_
*112 _0066_
*113 _0067_
*114 _0068_
*115 _0069_
*116 _0070_
*117 _0071_
*118 _0072_
*119 _0073_
*120 _0074_
*121 _0075_
*122 _0076_
*123 _0077_
*124 _0078_
*125 _0079_
*126 _0080_
*127 _0081_
*128 _0082_
*129 _0083_
*130 _0084_
*131 _0085_
*132 _0086_
*133 _0087_
*134 _0088_
*135 _0089_
*136 _0090_
*137 _0091_
*138 _0092_
*139 _0093_
*140 _0094_
*141 _0095_
*142 _0096_
*143 _0097_
*144 _0098_
*145 _0099_
*146 _0100_
*147 _0101_
*148 _0102_
*149 _0103_
*150 _0104_
*151 _0105_
*152 _0106_
*153 _0107_
*154 _0108_
*155 _0109_
*156 _0110_
*157 _0111_
*158 _0112_
*159 _0113_
*160 _0114_
*161 _0115_
*162 _0116_
*163 _0117_
*164 _0118_
*165 _0119_
*166 _0120_
*167 _0121_
*168 _0122_
*169 _0123_
*170 _0124_
*171 _0125_
*172 _0126_
*173 _0127_
*174 _0128_
*175 _0129_
*176 _0130_
*177 _0131_
*178 _0132_
*179 _0133_
*180 _0134_
*181 _0135_
*182 _0136_
*183 _0137_
*184 _0138_
*185 _0139_
*186 _0140_
*187 _0141_
*188 _0142_
*189 _0143_
*190 _0144_
*191 _0145_
*192 _0146_
*193 _0147_
*194 _0148_
*195 _0149_
*196 _0150_
*197 _0151_
*198 _0152_
*199 _0153_
*200 _0154_
*201 _0155_
*202 _0156_
*203 _0157_
*204 _0158_
*205 _0159_
*206 _0160_
*207 _0161_
*208 _0162_
*209 _0163_
*210 _0164_
*211 _0165_
*212 _0166_
*213 _0167_
*214 _0168_
*215 _0169_
*216 _0170_
*217 _0171_
*218 _0172_
*219 _0173_
*220 _0174_
*221 _0175_
*222 _0176_
*223 _0177_
*224 _0178_
*225 _0179_
*226 _0180_
*227 _0181_
*228 _0182_
*229 _0183_
*230 _0184_
*231 _0185_
*232 _0186_
*233 _0187_
*234 _0188_
*235 _0189_
*236 _0190_
*237 _0191_
*238 _0192_
*239 _0193_
*240 _0194_
*241 _0195_
*242 _0196_
*243 _0197_
*244 _0198_
*245 _0199_
*246 _0200_
*247 _0201_
*248 _0202_
*249 _0203_
*250 _0204_
*251 _0205_
*252 _0206_
*253 _0207_
*254 _0208_
*255 _0209_
*256 _0210_
*257 _0211_
*258 _0212_
*259 _0213_
*260 _0214_
*261 _0215_
*262 _0216_
*263 _0217_
*264 _0218_
*265 _0219_
*266 _0220_
*267 _0221_
*268 _0222_
*269 _0223_
*270 _0224_
*271 _0225_
*272 _0226_
*273 _0227_
*274 _0228_
*275 _0229_
*276 _0230_
*277 _0231_
*278 _0232_
*279 _0233_
*280 _0234_
*281 _0235_
*282 _0236_
*283 _0237_
*284 _0238_
*285 _0239_
*286 _0240_
*287 _0241_
*288 _0242_
*289 _0243_
*290 _0244_
*291 _0245_
*292 _0246_
*293 _0247_
*294 _0248_
*295 _0249_
*296 _0250_
*297 _0251_
*298 _0252_
*299 _0253_
*300 _0254_
*301 _0255_
*302 _0256_
*303 _0257_
*304 _0258_
*305 _0259_
*306 _0260_
*307 _0261_
*308 _0262_
*309 _0263_
*310 _0264_
*311 _0265_
*312 _0266_
*313 _0267_
*314 _0268_
*315 _0269_
*316 _0270_
*317 _0271_
*318 _0272_
*319 _0273_
*320 _0274_
*321 _0275_
*322 _0276_
*323 _0277_
*324 _0278_
*325 _0279_
*326 _0280_
*327 _0281_
*328 _0282_
*329 _0283_
*330 _0284_
*331 _0285_
*332 _0286_
*333 _0287_
*334 _0288_
*335 _0289_
*336 _0290_
*337 _0291_
*338 _0292_
*339 _0293_
*340 _0294_
*341 _0295_
*342 _0296_
*343 _0297_
*344 _0298_
*345 _0299_
*346 _0300_
*347 _0301_
*348 _0302_
*349 _0303_
*350 _0304_
*351 _0305_
*352 _0306_
*353 _0307_
*354 _0308_
*355 _0309_
*356 _0310_
*357 _0311_
*358 _0312_
*359 _0313_
*360 _0314_
*361 _0315_
*362 _0316_
*363 _0317_
*364 _0318_
*365 _0319_
*366 _0320_
*367 _0321_
*368 _0322_
*369 _0323_
*370 _0324_
*371 _0325_
*372 _0326_
*373 _0327_
*374 _0328_
*375 _0329_
*376 _0330_
*377 _0331_
*378 _0332_
*379 _0333_
*380 _0334_
*381 _0335_
*382 _0336_
*383 _0337_
*384 _0338_
*385 _0339_
*386 _0340_
*387 _0341_
*388 _0342_
*389 _0343_
*390 _0344_
*391 _0345_
*392 _0346_
*393 _0347_
*394 _0348_
*395 _0349_
*396 _0350_
*397 _0351_
*398 _0352_
*399 _0353_
*400 _0354_
*401 _0355_
*402 _0356_
*403 _0357_
*404 _0358_
*405 _0359_
*406 _0360_
*407 _0361_
*408 _0362_
*409 _0363_
*410 _0364_
*411 _0365_
*412 _0366_
*413 _0367_
*414 _0368_
*415 _0369_
*416 _0370_
*417 _0371_
*418 _0372_
*419 _0373_
*420 _0374_
*421 _0375_
*422 _0376_
*423 _0377_
*424 _0378_
*425 _0379_
*426 _0380_
*427 _0381_
*428 _0382_
*429 _0383_
*430 _0384_
*431 _0385_
*432 _0386_
*433 _0387_
*434 _0388_
*435 _0389_
*436 _0390_
*437 _0391_
*438 _0392_
*439 _0393_
*440 _0394_
*441 _0395_
*442 _0396_
*443 _0397_
*444 _0398_
*445 _0399_
*446 _0400_
*447 _0401_
*448 _0402_
*449 _0403_
*450 _0404_
*451 _0405_
*452 _0406_
*453 _0407_
*454 _0408_
*455 _0409_
*456 _0410_
*457 _0411_
*458 _0412_
*459 _0413_
*460 _0414_
*461 _0415_
*462 _0416_
*463 _0417_
*464 _0418_
*465 _0419_
*466 _0420_
*467 _0421_
*468 _0422_
*469 _0423_
*470 _0424_
*471 _0425_
*472 _0426_
*473 _0427_
*474 _0428_
*475 _0429_
*476 _0430_
*477 _0431_
*478 _0432_
*479 _0433_
*480 _0434_
*481 _0435_
*482 _0436_
*483 _0437_
*484 _0438_
*485 _0439_
*486 _0440_
*487 _0441_
*488 _0442_
*489 _0443_
*490 _0444_
*491 _0445_
*492 _0446_
*493 _0447_
*494 _0448_
*495 _0449_
*496 _0450_
*497 _0451_
*498 _0452_
*499 _0453_
*500 _0454_
*501 _0455_
*502 _0456_
*503 _0457_
*504 _0458_
*505 _0459_
*506 _0460_
*507 _0461_
*508 _0462_
*509 _0463_
*510 _0464_
*511 _0465_
*512 _0466_
*513 _0467_
*514 _0468_
*515 _0469_
*516 _0470_
*517 _0471_
*518 _0472_
*519 _0473_
*520 _0474_
*521 _0475_
*522 _0476_
*523 _0477_
*524 _0478_
*525 _0479_
*526 _0480_
*527 _0481_
*528 _0482_
*529 _0483_
*530 _0484_
*531 _0485_
*532 _0486_
*533 _0487_
*534 _0488_
*535 _0489_
*536 _0490_
*537 _0491_
*538 _0492_
*539 _0493_
*540 _0494_
*541 _0495_
*542 _0496_
*543 _0497_
*544 _0498_
*545 _0499_
*546 _0500_
*547 _0501_
*548 _0502_
*549 _0503_
*550 _0504_
*551 _0505_
*552 _0506_
*553 _0507_
*554 _0508_
*555 _0509_
*556 _0510_
*557 _0511_
*558 _0512_
*559 _0513_
*560 _0514_
*561 _0515_
*562 _0516_
*563 _0517_
*564 _0518_
*565 _0519_
*566 _0520_
*567 _0521_
*568 _0522_
*569 _0523_
*570 _0524_
*571 _0525_
*572 _0526_
*573 _0527_
*574 _0528_
*575 _0529_
*576 _0530_
*577 _0531_
*578 _0532_
*579 _0533_
*580 _0534_
*581 _0535_
*582 _0536_
*583 _0537_
*584 _0538_
*585 _0539_
*586 _0540_
*587 _0541_
*588 _0542_
*589 _0543_
*590 _0544_
*591 _0545_
*592 block1\.FETCH_ready
*593 block1\.column_indices\[0\]\[0\]
*594 block1\.column_indices\[0\]\[1\]
*595 block1\.column_indices\[1\]\[0\]
*596 block1\.column_indices\[1\]\[1\]
*597 block1\.column_indices\[2\]\[0\]
*598 block1\.column_indices\[2\]\[1\]
*599 block1\.column_indices\[3\]\[0\]
*600 block1\.column_indices\[3\]\[1\]
*601 block1\.column_indices\[4\]\[0\]
*602 block1\.column_indices\[4\]\[1\]
*603 block1\.column_indices\[5\]\[0\]
*604 block1\.column_indices\[5\]\[1\]
*605 block1\.column_indices\[6\]\[0\]
*606 block1\.column_indices\[6\]\[1\]
*607 block1\.column_indices\[7\]\[0\]
*608 block1\.column_indices\[7\]\[1\]
*609 block1\.column_indices\[8\]\[0\]
*610 block1\.column_indices\[8\]\[1\]
*611 block1\.current_row\[0\]
*612 block1\.current_row\[1\]
*613 block1\.i\[0\]
*614 block1\.i\[1\]
*615 block1\.i\[2\]
*616 block1\.i\[3\]
*617 block1\.interval\[0\]
*618 block1\.interval\[1\]
*619 block1\.interval\[2\]
*620 block1\.interval\[3\]
*621 block1\.interval\[4\]
*622 block1\.interval\[5\]
*623 block1\.interval\[6\]
*624 block1\.interval\[7\]
*625 block1\.j\[0\]
*626 block1\.j\[1\]
*627 block1\.result\[0\]\[0\]
*628 block1\.result\[0\]\[1\]
*629 block1\.result\[0\]\[2\]
*630 block1\.result\[0\]\[3\]
*631 block1\.result\[0\]\[4\]
*632 block1\.result\[0\]\[5\]
*633 block1\.result\[0\]\[6\]
*634 block1\.result\[0\]\[7\]
*635 block1\.result\[1\]\[0\]
*636 block1\.result\[1\]\[1\]
*637 block1\.result\[1\]\[2\]
*638 block1\.result\[1\]\[3\]
*639 block1\.result\[1\]\[4\]
*640 block1\.result\[1\]\[5\]
*641 block1\.result\[1\]\[6\]
*642 block1\.result\[1\]\[7\]
*643 block1\.result\[2\]\[0\]
*644 block1\.result\[2\]\[1\]
*645 block1\.result\[2\]\[2\]
*646 block1\.result\[2\]\[3\]
*647 block1\.result\[2\]\[4\]
*648 block1\.result\[2\]\[5\]
*649 block1\.result\[2\]\[6\]
*650 block1\.result\[2\]\[7\]
*651 block1\.row_pointers\[0\]\[0\]
*652 block1\.row_pointers\[0\]\[1\]
*653 block1\.row_pointers\[1\]\[0\]
*654 block1\.row_pointers\[1\]\[1\]
*655 block1\.row_pointers\[2\]\[0\]
*656 block1\.row_pointers\[2\]\[1\]
*657 block1\.row_pointers\[3\]\[0\]
*658 block1\.row_pointers\[3\]\[1\]
*659 block1\.row_pointers\[4\]\[0\]
*660 block1\.row_pointers\[4\]\[1\]
*661 block1\.row_pointers\[5\]\[0\]
*662 block1\.row_pointers\[5\]\[1\]
*663 block1\.row_pointers\[6\]\[0\]
*664 block1\.row_pointers\[6\]\[1\]
*665 block1\.row_pointers\[7\]\[0\]
*666 block1\.row_pointers\[7\]\[1\]
*667 block1\.row_pointers\[8\]\[0\]
*668 block1\.row_pointers\[8\]\[1\]
*669 block1\.sending_out
*670 block1\.spike_train\[0\]
*671 block1\.spike_train\[1\]
*672 block1\.spike_train\[2\]
*673 block1\.state\[0\]
*674 block1\.state\[1\]
*675 block1\.state\[2\]
*676 block1\.values\[0\]\[0\]
*677 block1\.values\[0\]\[1\]
*678 block1\.values\[0\]\[2\]
*679 block1\.values\[0\]\[3\]
*680 block1\.values\[0\]\[4\]
*681 block1\.values\[0\]\[5\]
*682 block1\.values\[0\]\[6\]
*683 block1\.values\[0\]\[7\]
*684 block1\.values\[1\]\[0\]
*685 block1\.values\[1\]\[1\]
*686 block1\.values\[1\]\[2\]
*687 block1\.values\[1\]\[3\]
*688 block1\.values\[1\]\[4\]
*689 block1\.values\[1\]\[5\]
*690 block1\.values\[1\]\[6\]
*691 block1\.values\[1\]\[7\]
*692 block1\.values\[2\]\[0\]
*693 block1\.values\[2\]\[1\]
*694 block1\.values\[2\]\[2\]
*695 block1\.values\[2\]\[3\]
*696 block1\.values\[2\]\[4\]
*697 block1\.values\[2\]\[5\]
*698 block1\.values\[2\]\[6\]
*699 block1\.values\[2\]\[7\]
*700 block1\.values\[3\]\[0\]
*701 block1\.values\[3\]\[1\]
*702 block1\.values\[3\]\[2\]
*703 block1\.values\[3\]\[3\]
*704 block1\.values\[3\]\[4\]
*705 block1\.values\[3\]\[5\]
*706 block1\.values\[3\]\[6\]
*707 block1\.values\[3\]\[7\]
*708 block1\.values\[4\]\[0\]
*709 block1\.values\[4\]\[1\]
*710 block1\.values\[4\]\[2\]
*711 block1\.values\[4\]\[3\]
*712 block1\.values\[4\]\[4\]
*713 block1\.values\[4\]\[5\]
*714 block1\.values\[4\]\[6\]
*715 block1\.values\[4\]\[7\]
*716 block1\.values\[5\]\[0\]
*717 block1\.values\[5\]\[1\]
*718 block1\.values\[5\]\[2\]
*719 block1\.values\[5\]\[3\]
*720 block1\.values\[5\]\[4\]
*721 block1\.values\[5\]\[5\]
*722 block1\.values\[5\]\[6\]
*723 block1\.values\[5\]\[7\]
*724 block1\.values\[6\]\[0\]
*725 block1\.values\[6\]\[1\]
*726 block1\.values\[6\]\[2\]
*727 block1\.values\[6\]\[3\]
*728 block1\.values\[6\]\[4\]
*729 block1\.values\[6\]\[5\]
*730 block1\.values\[6\]\[6\]
*731 block1\.values\[6\]\[7\]
*732 block1\.values\[7\]\[0\]
*733 block1\.values\[7\]\[1\]
*734 block1\.values\[7\]\[2\]
*735 block1\.values\[7\]\[3\]
*736 block1\.values\[7\]\[4\]
*737 block1\.values\[7\]\[5\]
*738 block1\.values\[7\]\[6\]
*739 block1\.values\[7\]\[7\]
*740 block1\.values\[8\]\[0\]
*741 block1\.values\[8\]\[1\]
*742 block1\.values\[8\]\[2\]
*743 block1\.values\[8\]\[3\]
*744 block1\.values\[8\]\[4\]
*745 block1\.values\[8\]\[5\]
*746 block1\.values\[8\]\[6\]
*747 block1\.values\[8\]\[7\]
*748 clknet_0_clk
*749 clknet_4_0_0_clk
*750 clknet_4_10_0_clk
*751 clknet_4_11_0_clk
*752 clknet_4_12_0_clk
*753 clknet_4_13_0_clk
*754 clknet_4_14_0_clk
*755 clknet_4_15_0_clk
*756 clknet_4_1_0_clk
*757 clknet_4_2_0_clk
*758 clknet_4_3_0_clk
*759 clknet_4_4_0_clk
*760 clknet_4_5_0_clk
*761 clknet_4_6_0_clk
*762 clknet_4_7_0_clk
*763 clknet_4_8_0_clk
*764 clknet_4_9_0_clk
*765 net1
*766 net10
*767 net100
*768 net101
*769 net102
*770 net103
*771 net104
*772 net105
*773 net106
*774 net107
*775 net108
*776 net109
*777 net11
*778 net110
*779 net111
*780 net112
*781 net113
*782 net114
*783 net115
*784 net116
*785 net117
*786 net118
*787 net119
*788 net12
*789 net120
*790 net121
*791 net122
*792 net123
*793 net124
*794 net125
*795 net126
*796 net127
*797 net128
*798 net129
*799 net13
*800 net130
*801 net131
*802 net132
*803 net133
*804 net134
*805 net135
*806 net136
*807 net137
*808 net138
*809 net139
*810 net14
*811 net140
*812 net141
*813 net142
*814 net143
*815 net144
*816 net145
*817 net146
*818 net147
*819 net148
*820 net149
*821 net15
*822 net150
*823 net151
*824 net152
*825 net153
*826 net154
*827 net155
*828 net156
*829 net157
*830 net158
*831 net159
*832 net16
*833 net160
*834 net161
*835 net162
*836 net163
*837 net164
*838 net165
*839 net166
*840 net167
*841 net168
*842 net169
*843 net17
*844 net170
*845 net171
*846 net172
*847 net173
*848 net174
*849 net175
*850 net176
*851 net177
*852 net178
*853 net179
*854 net18
*855 net180
*856 net181
*857 net182
*858 net183
*859 net184
*860 net185
*861 net19
*862 net2
*863 net20
*864 net21
*865 net22
*866 net23
*867 net3
*868 net38
*869 net39
*870 net4
*871 net40
*872 net41
*873 net42
*874 net43
*875 net44
*876 net45
*877 net46
*878 net47
*879 net48
*880 net49
*881 net5
*882 net50
*883 net51
*884 net52
*885 net53
*886 net54
*887 net55
*888 net56
*889 net57
*890 net58
*891 net59
*892 net6
*893 net60
*894 net61
*895 net62
*896 net63
*897 net64
*898 net65
*899 net66
*900 net67
*901 net68
*902 net69
*903 net7
*904 net70
*905 net71
*906 net72
*907 net73
*908 net74
*909 net75
*910 net76
*911 net77
*912 net78
*913 net79
*914 net8
*915 net80
*916 net81
*917 net82
*918 net83
*919 net84
*920 net85
*921 net86
*922 net87
*923 net88
*924 net89
*925 net9
*926 net90
*927 net91
*928 net92
*929 net93
*930 net94
*931 net95
*932 net96
*933 net97
*934 net98
*935 net99
*936 ANTENNA_1
*937 ANTENNA_2
*938 ANTENNA_3
*939 ANTENNA_4
*940 FILLER_0_0_109
*941 FILLER_0_0_113
*942 FILLER_0_0_125
*943 FILLER_0_0_137
*944 FILLER_0_0_141
*945 FILLER_0_0_15
*946 FILLER_0_0_153
*947 FILLER_0_0_165
*948 FILLER_0_0_169
*949 FILLER_0_0_181
*950 FILLER_0_0_193
*951 FILLER_0_0_197
*952 FILLER_0_0_209
*953 FILLER_0_0_221
*954 FILLER_0_0_225
*955 FILLER_0_0_237
*956 FILLER_0_0_249
*957 FILLER_0_0_253
*958 FILLER_0_0_265
*959 FILLER_0_0_27
*960 FILLER_0_0_277
*961 FILLER_0_0_281
*962 FILLER_0_0_29
*963 FILLER_0_0_293
*964 FILLER_0_0_3
*965 FILLER_0_0_305
*966 FILLER_0_0_309
*967 FILLER_0_0_321
*968 FILLER_0_0_333
*969 FILLER_0_0_337
*970 FILLER_0_0_349
*971 FILLER_0_0_41
*972 FILLER_0_0_53
*973 FILLER_0_0_57
*974 FILLER_0_0_69
*975 FILLER_0_0_81
*976 FILLER_0_0_85
*977 FILLER_0_0_97
*978 FILLER_0_10_112
*979 FILLER_0_10_124
*980 FILLER_0_10_132
*981 FILLER_0_10_166
*982 FILLER_0_10_195
*983 FILLER_0_10_206
*984 FILLER_0_10_214
*985 FILLER_0_10_238
*986 FILLER_0_10_250
*987 FILLER_0_10_285
*988 FILLER_0_10_29
*989 FILLER_0_10_293
*990 FILLER_0_10_3
*991 FILLER_0_10_307
*992 FILLER_0_10_333
*993 FILLER_0_10_345
*994 FILLER_0_10_39
*995 FILLER_0_10_59
*996 FILLER_0_10_66
*997 FILLER_0_10_74
*998 FILLER_0_10_78
*999 FILLER_0_10_85
*1000 FILLER_0_10_89
*1001 FILLER_0_11_130
*1002 FILLER_0_11_167
*1003 FILLER_0_11_169
*1004 FILLER_0_11_209
*1005 FILLER_0_11_221
*1006 FILLER_0_11_292
*1007 FILLER_0_11_3
*1008 FILLER_0_11_300
*1009 FILLER_0_11_329
*1010 FILLER_0_11_335
*1011 FILLER_0_11_337
*1012 FILLER_0_11_349
*1013 FILLER_0_11_60
*1014 FILLER_0_11_64
*1015 FILLER_0_11_87
*1016 FILLER_0_12_118
*1017 FILLER_0_12_165
*1018 FILLER_0_12_177
*1019 FILLER_0_12_193
*1020 FILLER_0_12_213
*1021 FILLER_0_12_225
*1022 FILLER_0_12_240
*1023 FILLER_0_12_250
*1024 FILLER_0_12_259
*1025 FILLER_0_12_287
*1026 FILLER_0_12_29
*1027 FILLER_0_12_3
*1028 FILLER_0_12_304
*1029 FILLER_0_12_309
*1030 FILLER_0_12_325
*1031 FILLER_0_12_345
*1032 FILLER_0_12_64
*1033 FILLER_0_13_111
*1034 FILLER_0_13_120
*1035 FILLER_0_13_128
*1036 FILLER_0_13_132
*1037 FILLER_0_13_142
*1038 FILLER_0_13_15
*1039 FILLER_0_13_161
*1040 FILLER_0_13_167
*1041 FILLER_0_13_169
*1042 FILLER_0_13_181
*1043 FILLER_0_13_189
*1044 FILLER_0_13_19
*1045 FILLER_0_13_210
*1046 FILLER_0_13_219
*1047 FILLER_0_13_223
*1048 FILLER_0_13_225
*1049 FILLER_0_13_231
*1050 FILLER_0_13_259
*1051 FILLER_0_13_271
*1052 FILLER_0_13_279
*1053 FILLER_0_13_3
*1054 FILLER_0_13_300
*1055 FILLER_0_13_304
*1056 FILLER_0_13_321
*1057 FILLER_0_13_334
*1058 FILLER_0_13_345
*1059 FILLER_0_13_57
*1060 FILLER_0_13_69
*1061 FILLER_0_13_93
*1062 FILLER_0_14_114
*1063 FILLER_0_14_122
*1064 FILLER_0_14_144
*1065 FILLER_0_14_15
*1066 FILLER_0_14_164
*1067 FILLER_0_14_182
*1068 FILLER_0_14_186
*1069 FILLER_0_14_206
*1070 FILLER_0_14_212
*1071 FILLER_0_14_23
*1072 FILLER_0_14_245
*1073 FILLER_0_14_251
*1074 FILLER_0_14_284
*1075 FILLER_0_14_292
*1076 FILLER_0_14_3
*1077 FILLER_0_14_304
*1078 FILLER_0_14_318
*1079 FILLER_0_14_341
*1080 FILLER_0_14_349
*1081 FILLER_0_14_45
*1082 FILLER_0_14_57
*1083 FILLER_0_14_80
*1084 FILLER_0_14_85
*1085 FILLER_0_15_108
*1086 FILLER_0_15_113
*1087 FILLER_0_15_125
*1088 FILLER_0_15_131
*1089 FILLER_0_15_15
*1090 FILLER_0_15_177
*1091 FILLER_0_15_225
*1092 FILLER_0_15_246
*1093 FILLER_0_15_251
*1094 FILLER_0_15_261
*1095 FILLER_0_15_265
*1096 FILLER_0_15_278
*1097 FILLER_0_15_297
*1098 FILLER_0_15_3
*1099 FILLER_0_15_319
*1100 FILLER_0_15_330
*1101 FILLER_0_15_345
*1102 FILLER_0_15_35
*1103 FILLER_0_15_47
*1104 FILLER_0_15_55
*1105 FILLER_0_15_81
*1106 FILLER_0_15_97
*1107 FILLER_0_16_128
*1108 FILLER_0_16_138
*1109 FILLER_0_16_141
*1110 FILLER_0_16_15
*1111 FILLER_0_16_184
*1112 FILLER_0_16_192
*1113 FILLER_0_16_213
*1114 FILLER_0_16_246
*1115 FILLER_0_16_253
*1116 FILLER_0_16_257
*1117 FILLER_0_16_27
*1118 FILLER_0_16_29
*1119 FILLER_0_16_3
*1120 FILLER_0_16_340
*1121 FILLER_0_16_348
*1122 FILLER_0_16_41
*1123 FILLER_0_16_45
*1124 FILLER_0_16_80
*1125 FILLER_0_16_96
*1126 FILLER_0_17_11
*1127 FILLER_0_17_137
*1128 FILLER_0_17_141
*1129 FILLER_0_17_167
*1130 FILLER_0_17_169
*1131 FILLER_0_17_181
*1132 FILLER_0_17_192
*1133 FILLER_0_17_204
*1134 FILLER_0_17_216
*1135 FILLER_0_17_221
*1136 FILLER_0_17_233
*1137 FILLER_0_17_240
*1138 FILLER_0_17_251
*1139 FILLER_0_17_270
*1140 FILLER_0_17_292
*1141 FILLER_0_17_3
*1142 FILLER_0_17_30
*1143 FILLER_0_17_304
*1144 FILLER_0_17_313
*1145 FILLER_0_17_334
*1146 FILLER_0_17_348
*1147 FILLER_0_17_46
*1148 FILLER_0_17_52
*1149 FILLER_0_18_126
*1150 FILLER_0_18_138
*1151 FILLER_0_18_141
*1152 FILLER_0_18_150
*1153 FILLER_0_18_158
*1154 FILLER_0_18_168
*1155 FILLER_0_18_190
*1156 FILLER_0_18_213
*1157 FILLER_0_18_230
*1158 FILLER_0_18_261
*1159 FILLER_0_18_280
*1160 FILLER_0_18_287
*1161 FILLER_0_18_299
*1162 FILLER_0_18_3
*1163 FILLER_0_18_307
*1164 FILLER_0_18_309
*1165 FILLER_0_18_38
*1166 FILLER_0_18_53
*1167 FILLER_0_18_67
*1168 FILLER_0_18_82
*1169 FILLER_0_18_85
*1170 FILLER_0_19_102
*1171 FILLER_0_19_110
*1172 FILLER_0_19_113
*1173 FILLER_0_19_125
*1174 FILLER_0_19_129
*1175 FILLER_0_19_15
*1176 FILLER_0_19_163
*1177 FILLER_0_19_167
*1178 FILLER_0_19_169
*1179 FILLER_0_19_202
*1180 FILLER_0_19_21
*1181 FILLER_0_19_259
*1182 FILLER_0_19_278
*1183 FILLER_0_19_291
*1184 FILLER_0_19_299
*1185 FILLER_0_19_3
*1186 FILLER_0_19_303
*1187 FILLER_0_19_311
*1188 FILLER_0_19_323
*1189 FILLER_0_19_334
*1190 FILLER_0_19_337
*1191 FILLER_0_19_348
*1192 FILLER_0_19_40
*1193 FILLER_0_19_53
*1194 FILLER_0_19_72
*1195 FILLER_0_19_80
*1196 FILLER_0_19_92
*1197 FILLER_0_1_105
*1198 FILLER_0_1_111
*1199 FILLER_0_1_113
*1200 FILLER_0_1_125
*1201 FILLER_0_1_137
*1202 FILLER_0_1_149
*1203 FILLER_0_1_15
*1204 FILLER_0_1_161
*1205 FILLER_0_1_167
*1206 FILLER_0_1_169
*1207 FILLER_0_1_181
*1208 FILLER_0_1_193
*1209 FILLER_0_1_205
*1210 FILLER_0_1_217
*1211 FILLER_0_1_223
*1212 FILLER_0_1_225
*1213 FILLER_0_1_237
*1214 FILLER_0_1_249
*1215 FILLER_0_1_261
*1216 FILLER_0_1_27
*1217 FILLER_0_1_273
*1218 FILLER_0_1_279
*1219 FILLER_0_1_281
*1220 FILLER_0_1_293
*1221 FILLER_0_1_3
*1222 FILLER_0_1_305
*1223 FILLER_0_1_317
*1224 FILLER_0_1_329
*1225 FILLER_0_1_335
*1226 FILLER_0_1_337
*1227 FILLER_0_1_349
*1228 FILLER_0_1_39
*1229 FILLER_0_1_51
*1230 FILLER_0_1_55
*1231 FILLER_0_1_57
*1232 FILLER_0_1_69
*1233 FILLER_0_1_81
*1234 FILLER_0_1_93
*1235 FILLER_0_20_11
*1236 FILLER_0_20_110
*1237 FILLER_0_20_122
*1238 FILLER_0_20_167
*1239 FILLER_0_20_17
*1240 FILLER_0_20_179
*1241 FILLER_0_20_251
*1242 FILLER_0_20_253
*1243 FILLER_0_20_29
*1244 FILLER_0_20_299
*1245 FILLER_0_20_3
*1246 FILLER_0_20_331
*1247 FILLER_0_20_343
*1248 FILLER_0_20_77
*1249 FILLER_0_20_83
*1250 FILLER_0_21_110
*1251 FILLER_0_21_121
*1252 FILLER_0_21_144
*1253 FILLER_0_21_165
*1254 FILLER_0_21_169
*1255 FILLER_0_21_177
*1256 FILLER_0_21_207
*1257 FILLER_0_21_215
*1258 FILLER_0_21_225
*1259 FILLER_0_21_23
*1260 FILLER_0_21_249
*1261 FILLER_0_21_293
*1262 FILLER_0_21_3
*1263 FILLER_0_21_305
*1264 FILLER_0_21_313
*1265 FILLER_0_21_335
*1266 FILLER_0_21_337
*1267 FILLER_0_21_349
*1268 FILLER_0_21_53
*1269 FILLER_0_21_67
*1270 FILLER_0_21_73
*1271 FILLER_0_21_90
*1272 FILLER_0_22_11
*1273 FILLER_0_22_121
*1274 FILLER_0_22_129
*1275 FILLER_0_22_135
*1276 FILLER_0_22_139
*1277 FILLER_0_22_141
*1278 FILLER_0_22_158
*1279 FILLER_0_22_170
*1280 FILLER_0_22_182
*1281 FILLER_0_22_195
*1282 FILLER_0_22_213
*1283 FILLER_0_22_251
*1284 FILLER_0_22_253
*1285 FILLER_0_22_265
*1286 FILLER_0_22_286
*1287 FILLER_0_22_298
*1288 FILLER_0_22_3
*1289 FILLER_0_22_306
*1290 FILLER_0_22_309
*1291 FILLER_0_22_345
*1292 FILLER_0_22_62
*1293 FILLER_0_22_74
*1294 FILLER_0_22_81
*1295 FILLER_0_23_100
*1296 FILLER_0_23_107
*1297 FILLER_0_23_111
*1298 FILLER_0_23_129
*1299 FILLER_0_23_15
*1300 FILLER_0_23_178
*1301 FILLER_0_23_222
*1302 FILLER_0_23_225
*1303 FILLER_0_23_258
*1304 FILLER_0_23_264
*1305 FILLER_0_23_27
*1306 FILLER_0_23_297
*1307 FILLER_0_23_3
*1308 FILLER_0_23_312
*1309 FILLER_0_23_32
*1310 FILLER_0_23_341
*1311 FILLER_0_23_349
*1312 FILLER_0_23_40
*1313 FILLER_0_23_44
*1314 FILLER_0_23_57
*1315 FILLER_0_23_64
*1316 FILLER_0_23_88
*1317 FILLER_0_24_105
*1318 FILLER_0_24_131
*1319 FILLER_0_24_139
*1320 FILLER_0_24_141
*1321 FILLER_0_24_145
*1322 FILLER_0_24_149
*1323 FILLER_0_24_15
*1324 FILLER_0_24_159
*1325 FILLER_0_24_187
*1326 FILLER_0_24_195
*1327 FILLER_0_24_217
*1328 FILLER_0_24_225
*1329 FILLER_0_24_230
*1330 FILLER_0_24_253
*1331 FILLER_0_24_259
*1332 FILLER_0_24_27
*1333 FILLER_0_24_279
*1334 FILLER_0_24_285
*1335 FILLER_0_24_29
*1336 FILLER_0_24_294
*1337 FILLER_0_24_3
*1338 FILLER_0_24_309
*1339 FILLER_0_24_335
*1340 FILLER_0_24_347
*1341 FILLER_0_24_41
*1342 FILLER_0_24_53
*1343 FILLER_0_24_80
*1344 FILLER_0_24_93
*1345 FILLER_0_25_101
*1346 FILLER_0_25_105
*1347 FILLER_0_25_134
*1348 FILLER_0_25_146
*1349 FILLER_0_25_15
*1350 FILLER_0_25_175
*1351 FILLER_0_25_183
*1352 FILLER_0_25_198
*1353 FILLER_0_25_210
*1354 FILLER_0_25_222
*1355 FILLER_0_25_225
*1356 FILLER_0_25_229
*1357 FILLER_0_25_234
*1358 FILLER_0_25_246
*1359 FILLER_0_25_27
*1360 FILLER_0_25_279
*1361 FILLER_0_25_289
*1362 FILLER_0_25_3
*1363 FILLER_0_25_331
*1364 FILLER_0_25_335
*1365 FILLER_0_25_337
*1366 FILLER_0_25_349
*1367 FILLER_0_25_39
*1368 FILLER_0_26_100
*1369 FILLER_0_26_105
*1370 FILLER_0_26_132
*1371 FILLER_0_26_136
*1372 FILLER_0_26_15
*1373 FILLER_0_26_152
*1374 FILLER_0_26_174
*1375 FILLER_0_26_178
*1376 FILLER_0_26_195
*1377 FILLER_0_26_203
*1378 FILLER_0_26_215
*1379 FILLER_0_26_220
*1380 FILLER_0_26_247
*1381 FILLER_0_26_251
*1382 FILLER_0_26_253
*1383 FILLER_0_26_259
*1384 FILLER_0_26_27
*1385 FILLER_0_26_278
*1386 FILLER_0_26_29
*1387 FILLER_0_26_290
*1388 FILLER_0_26_294
*1389 FILLER_0_26_3
*1390 FILLER_0_26_301
*1391 FILLER_0_26_307
*1392 FILLER_0_26_309
*1393 FILLER_0_26_321
*1394 FILLER_0_26_346
*1395 FILLER_0_26_350
*1396 FILLER_0_26_41
*1397 FILLER_0_26_77
*1398 FILLER_0_26_96
*1399 FILLER_0_27_104
*1400 FILLER_0_27_127
*1401 FILLER_0_27_15
*1402 FILLER_0_27_165
*1403 FILLER_0_27_169
*1404 FILLER_0_27_181
*1405 FILLER_0_27_202
*1406 FILLER_0_27_210
*1407 FILLER_0_27_254
*1408 FILLER_0_27_260
*1409 FILLER_0_27_269
*1410 FILLER_0_27_27
*1411 FILLER_0_27_273
*1412 FILLER_0_27_3
*1413 FILLER_0_27_310
*1414 FILLER_0_27_317
*1415 FILLER_0_27_325
*1416 FILLER_0_27_335
*1417 FILLER_0_27_337
*1418 FILLER_0_27_349
*1419 FILLER_0_27_39
*1420 FILLER_0_27_47
*1421 FILLER_0_27_57
*1422 FILLER_0_27_67
*1423 FILLER_0_27_78
*1424 FILLER_0_27_84
*1425 FILLER_0_28_127
*1426 FILLER_0_28_139
*1427 FILLER_0_28_15
*1428 FILLER_0_28_160
*1429 FILLER_0_28_172
*1430 FILLER_0_28_176
*1431 FILLER_0_28_195
*1432 FILLER_0_28_205
*1433 FILLER_0_28_246
*1434 FILLER_0_28_253
*1435 FILLER_0_28_264
*1436 FILLER_0_28_27
*1437 FILLER_0_28_276
*1438 FILLER_0_28_285
*1439 FILLER_0_28_29
*1440 FILLER_0_28_297
*1441 FILLER_0_28_3
*1442 FILLER_0_28_305
*1443 FILLER_0_28_309
*1444 FILLER_0_28_341
*1445 FILLER_0_28_349
*1446 FILLER_0_28_41
*1447 FILLER_0_28_53
*1448 FILLER_0_28_65
*1449 FILLER_0_28_77
*1450 FILLER_0_28_83
*1451 FILLER_0_28_85
*1452 FILLER_0_28_93
*1453 FILLER_0_29_101
*1454 FILLER_0_29_110
*1455 FILLER_0_29_134
*1456 FILLER_0_29_146
*1457 FILLER_0_29_15
*1458 FILLER_0_29_152
*1459 FILLER_0_29_162
*1460 FILLER_0_29_169
*1461 FILLER_0_29_212
*1462 FILLER_0_29_236
*1463 FILLER_0_29_248
*1464 FILLER_0_29_261
*1465 FILLER_0_29_269
*1466 FILLER_0_29_27
*1467 FILLER_0_29_3
*1468 FILLER_0_29_304
*1469 FILLER_0_29_308
*1470 FILLER_0_29_345
*1471 FILLER_0_29_39
*1472 FILLER_0_29_51
*1473 FILLER_0_29_55
*1474 FILLER_0_29_73
*1475 FILLER_0_29_85
*1476 FILLER_0_29_91
*1477 FILLER_0_29_95
*1478 FILLER_0_2_109
*1479 FILLER_0_2_121
*1480 FILLER_0_2_133
*1481 FILLER_0_2_139
*1482 FILLER_0_2_141
*1483 FILLER_0_2_15
*1484 FILLER_0_2_153
*1485 FILLER_0_2_165
*1486 FILLER_0_2_177
*1487 FILLER_0_2_189
*1488 FILLER_0_2_195
*1489 FILLER_0_2_197
*1490 FILLER_0_2_209
*1491 FILLER_0_2_221
*1492 FILLER_0_2_233
*1493 FILLER_0_2_245
*1494 FILLER_0_2_251
*1495 FILLER_0_2_253
*1496 FILLER_0_2_265
*1497 FILLER_0_2_27
*1498 FILLER_0_2_277
*1499 FILLER_0_2_289
*1500 FILLER_0_2_29
*1501 FILLER_0_2_3
*1502 FILLER_0_2_301
*1503 FILLER_0_2_307
*1504 FILLER_0_2_309
*1505 FILLER_0_2_321
*1506 FILLER_0_2_333
*1507 FILLER_0_2_345
*1508 FILLER_0_2_41
*1509 FILLER_0_2_53
*1510 FILLER_0_2_65
*1511 FILLER_0_2_77
*1512 FILLER_0_2_83
*1513 FILLER_0_2_85
*1514 FILLER_0_2_97
*1515 FILLER_0_30_107
*1516 FILLER_0_30_115
*1517 FILLER_0_30_124
*1518 FILLER_0_30_141
*1519 FILLER_0_30_15
*1520 FILLER_0_30_172
*1521 FILLER_0_30_197
*1522 FILLER_0_30_209
*1523 FILLER_0_30_221
*1524 FILLER_0_30_241
*1525 FILLER_0_30_245
*1526 FILLER_0_30_253
*1527 FILLER_0_30_261
*1528 FILLER_0_30_27
*1529 FILLER_0_30_278
*1530 FILLER_0_30_29
*1531 FILLER_0_30_3
*1532 FILLER_0_30_303
*1533 FILLER_0_30_307
*1534 FILLER_0_30_309
*1535 FILLER_0_30_313
*1536 FILLER_0_30_349
*1537 FILLER_0_30_41
*1538 FILLER_0_30_49
*1539 FILLER_0_30_83
*1540 FILLER_0_30_93
*1541 FILLER_0_31_109
*1542 FILLER_0_31_113
*1543 FILLER_0_31_140
*1544 FILLER_0_31_15
*1545 FILLER_0_31_178
*1546 FILLER_0_31_189
*1547 FILLER_0_31_201
*1548 FILLER_0_31_208
*1549 FILLER_0_31_218
*1550 FILLER_0_31_222
*1551 FILLER_0_31_241
*1552 FILLER_0_31_252
*1553 FILLER_0_31_27
*1554 FILLER_0_31_276
*1555 FILLER_0_31_281
*1556 FILLER_0_31_3
*1557 FILLER_0_31_305
*1558 FILLER_0_31_323
*1559 FILLER_0_31_334
*1560 FILLER_0_31_337
*1561 FILLER_0_31_349
*1562 FILLER_0_31_39
*1563 FILLER_0_31_47
*1564 FILLER_0_31_90
*1565 FILLER_0_31_98
*1566 FILLER_0_32_113
*1567 FILLER_0_32_135
*1568 FILLER_0_32_139
*1569 FILLER_0_32_149
*1570 FILLER_0_32_15
*1571 FILLER_0_32_166
*1572 FILLER_0_32_177
*1573 FILLER_0_32_193
*1574 FILLER_0_32_197
*1575 FILLER_0_32_201
*1576 FILLER_0_32_251
*1577 FILLER_0_32_27
*1578 FILLER_0_32_274
*1579 FILLER_0_32_280
*1580 FILLER_0_32_29
*1581 FILLER_0_32_293
*1582 FILLER_0_32_299
*1583 FILLER_0_32_3
*1584 FILLER_0_32_307
*1585 FILLER_0_32_309
*1586 FILLER_0_32_313
*1587 FILLER_0_32_344
*1588 FILLER_0_32_350
*1589 FILLER_0_32_41
*1590 FILLER_0_32_82
*1591 FILLER_0_33_113
*1592 FILLER_0_33_145
*1593 FILLER_0_33_15
*1594 FILLER_0_33_152
*1595 FILLER_0_33_167
*1596 FILLER_0_33_177
*1597 FILLER_0_33_194
*1598 FILLER_0_33_206
*1599 FILLER_0_33_212
*1600 FILLER_0_33_242
*1601 FILLER_0_33_260
*1602 FILLER_0_33_264
*1603 FILLER_0_33_27
*1604 FILLER_0_33_274
*1605 FILLER_0_33_296
*1606 FILLER_0_33_3
*1607 FILLER_0_33_308
*1608 FILLER_0_33_312
*1609 FILLER_0_33_332
*1610 FILLER_0_33_337
*1611 FILLER_0_33_349
*1612 FILLER_0_33_39
*1613 FILLER_0_33_51
*1614 FILLER_0_33_55
*1615 FILLER_0_33_57
*1616 FILLER_0_33_84
*1617 FILLER_0_33_88
*1618 FILLER_0_34_105
*1619 FILLER_0_34_137
*1620 FILLER_0_34_148
*1621 FILLER_0_34_15
*1622 FILLER_0_34_160
*1623 FILLER_0_34_180
*1624 FILLER_0_34_190
*1625 FILLER_0_34_197
*1626 FILLER_0_34_209
*1627 FILLER_0_34_217
*1628 FILLER_0_34_230
*1629 FILLER_0_34_234
*1630 FILLER_0_34_253
*1631 FILLER_0_34_264
*1632 FILLER_0_34_27
*1633 FILLER_0_34_29
*1634 FILLER_0_34_293
*1635 FILLER_0_34_3
*1636 FILLER_0_34_305
*1637 FILLER_0_34_309
*1638 FILLER_0_34_340
*1639 FILLER_0_34_348
*1640 FILLER_0_34_41
*1641 FILLER_0_34_49
*1642 FILLER_0_34_83
*1643 FILLER_0_34_92
*1644 FILLER_0_34_96
*1645 FILLER_0_35_103
*1646 FILLER_0_35_129
*1647 FILLER_0_35_145
*1648 FILLER_0_35_15
*1649 FILLER_0_35_163
*1650 FILLER_0_35_167
*1651 FILLER_0_35_175
*1652 FILLER_0_35_196
*1653 FILLER_0_35_200
*1654 FILLER_0_35_207
*1655 FILLER_0_35_213
*1656 FILLER_0_35_225
*1657 FILLER_0_35_256
*1658 FILLER_0_35_262
*1659 FILLER_0_35_27
*1660 FILLER_0_35_279
*1661 FILLER_0_35_281