*SPEF "ieee 1481-1999"
*DESIGN "tt_um_sap_1"
*DATE "11:11:11 Fri 11 11, 1111"
*VENDOR "OpenRCX"
*PROGRAM "Parallel Extraction"
*VERSION "1.0"
*DESIGN_FLOW "NAME_SCOPE LOCAL" "PIN_CAP NONE"
*DIVIDER /
*DELIMITER :
*BUS_DELIMITER []
*T_UNIT 1 NS
*C_UNIT 1 PF
*R_UNIT 1 OHM
*L_UNIT 1 HENRY

*NAME_MAP
*3 clk
*4 ena
*5 rst_n
*6 ui_in[0]
*7 ui_in[1]
*8 ui_in[2]
*9 ui_in[3]
*10 ui_in[4]
*11 ui_in[5]
*12 ui_in[6]
*13 ui_in[7]
*14 uio_in[0]
*15 uio_in[1]
*16 uio_in[2]
*17 uio_in[3]
*18 uio_in[4]
*19 uio_in[5]
*20 uio_in[6]
*21 uio_in[7]
*22 net2
*23 net3
*24 net4
*25 net5
*26 net6
*27 net7
*28 net8
*29 net9
*30 net10
*31 net11
*32 net12
*33 net13
*34 net14
*35 net15
*36 net16
*37 net17
*38 uo_out[0]
*39 uo_out[1]
*40 uo_out[2]
*41 uo_out[3]
*42 uo_out[4]
*43 uo_out[5]
*44 uo_out[6]
*45 uo_out[7]
*46 _000_
*47 _001_
*48 _002_
*49 _003_
*50 _004_
*51 _005_
*52 _006_
*53 _007_
*54 _008_
*55 _009_
*56 _010_
*57 _011_
*58 _012_
*59 _013_
*60 _014_
*61 _015_
*62 _016_
*63 _017_
*64 _018_
*65 _019_
*66 _020_
*67 _021_
*68 _022_
*69 _023_
*70 _024_
*71 _025_
*72 _026_
*73 _027_
*74 _028_
*75 _029_
*76 _030_
*77 _031_
*78 _032_
*79 _033_
*80 _034_
*81 _035_
*82 _036_
*83 _037_
*84 _038_
*85 _039_
*86 _040_
*87 _041_
*88 _042_
*89 _043_
*90 _044_
*91 _045_
*92 _046_
*93 _047_
*94 _048_
*95 _049_
*96 _050_
*97 _051_
*98 _052_
*99 _053_
*100 _054_
*101 _055_
*102 _056_
*103 _057_
*104 _058_
*105 _059_
*106 _060_
*107 _061_
*108 _062_
*109 _063_
*110 _064_
*111 _065_
*112 _066_
*113 _067_
*114 _068_
*115 _069_
*116 _070_
*117 _071_
*118 _072_
*119 _073_
*120 _074_
*121 _075_
*122 _076_
*123 _077_
*124 _078_
*125 _079_
*126 _080_
*127 _081_
*128 _082_
*129 _083_
*130 _084_
*131 _085_
*132 _086_
*133 _087_
*134 _088_
*135 _089_
*136 _090_
*137 _091_
*138 _092_
*139 _093_
*140 _094_
*141 _095_
*142 _096_
*143 _097_
*144 _098_
*145 _099_
*146 _100_
*147 _101_
*148 _102_
*149 _103_
*150 _104_
*151 _105_
*152 _106_
*153 _107_
*154 _108_
*155 _109_
*156 _110_
*157 _111_
*158 _112_
*159 _113_
*160 _114_
*161 _115_
*162 _116_
*163 _117_
*164 _118_
*165 _119_
*166 _120_
*167 _121_
*168 _122_
*169 _123_
*170 _124_
*171 _125_
*172 _126_
*173 _127_
*174 _128_
*175 _129_
*176 _130_
*177 _131_
*178 _132_
*179 _133_
*180 _134_
*181 _135_
*182 _136_
*183 _137_
*184 _138_
*185 _139_
*186 _140_
*187 _141_
*188 _142_
*189 _143_
*190 _144_
*191 _145_
*192 _146_
*193 _147_
*194 _148_
*195 _149_
*196 _150_
*197 _151_
*198 _152_
*199 _153_
*200 _154_
*201 _155_
*202 _156_
*203 _157_
*204 _158_
*205 _159_
*206 _160_
*207 _161_
*208 _162_
*209 _163_
*210 _164_
*211 _165_
*212 _166_
*213 _167_
*214 _168_
*215 _169_
*216 _170_
*217 _171_
*218 _172_
*219 _173_
*220 _174_
*221 _175_
*222 _176_
*223 _177_
*224 _178_
*225 _179_
*226 _180_
*227 _181_
*228 _182_
*229 _183_
*230 _184_
*231 _185_
*232 _186_
*233 _187_
*234 _188_
*235 _189_
*236 _190_
*237 _191_
*238 _192_
*239 _193_
*240 _194_
*241 _195_
*242 _196_
*243 _197_
*244 _198_
*245 _199_
*246 _200_
*247 _201_
*248 _202_
*249 _203_
*250 _204_
*251 _205_
*252 _206_
*253 _207_
*254 _208_
*255 _209_
*256 _210_
*257 _211_
*258 _212_
*259 _213_
*260 _214_
*261 _215_
*262 _216_
*263 _217_
*264 _218_
*265 _219_
*266 _220_
*267 _221_
*268 _222_
*269 _223_
*270 _224_
*271 _225_
*272 _226_
*273 _227_
*274 _228_
*275 _229_
*276 _230_
*277 _231_
*278 _232_
*279 _233_
*280 _234_
*281 clknet_0_clk
*282 clknet_0_sap_1\.clock\.clk_out
*283 clknet_1_0__leaf_clk
*284 clknet_1_1__leaf_clk
*285 clknet_2_0__leaf_sap_1\.clock\.clk_out
*286 clknet_2_1__leaf_sap_1\.clock\.clk_out
*287 clknet_2_2__leaf_sap_1\.clock\.clk_out
*288 clknet_2_3__leaf_sap_1\.clock\.clk_out
*289 net1
*290 sap_1\.a_load
*291 sap_1\.a_out\[0\]
*292 sap_1\.a_out\[1\]
*293 sap_1\.a_out\[2\]
*294 sap_1\.a_out\[3\]
*295 sap_1\.a_out\[4\]
*296 sap_1\.a_out\[5\]
*297 sap_1\.a_out\[6\]
*298 sap_1\.a_out\[7\]
*299 sap_1\.adder\.b\[0\]
*300 sap_1\.adder\.b\[1\]
*301 sap_1\.adder\.b\[2\]
*302 sap_1\.adder\.b\[3\]
*303 sap_1\.adder\.b\[4\]
*304 sap_1\.adder\.b\[5\]
*305 sap_1\.adder\.b\[6\]
*306 sap_1\.adder\.b\[7\]
*307 sap_1\.adder\.sub
*308 sap_1\.adder_en
*309 sap_1\.b_load
*310 sap_1\.clock\.clk_out
*311 sap_1\.clock\.hlt
*312 sap_1\.controller\.opcode\[0\]
*313 sap_1\.controller\.opcode\[1\]
*314 sap_1\.controller\.opcode\[2\]
*315 sap_1\.controller\.opcode\[3\]
*316 sap_1\.controller\.stage\[0\]
*317 sap_1\.controller\.stage\[1\]
*318 sap_1\.controller\.stage\[2\]
*319 sap_1\.ir\.ir\[0\]
*320 sap_1\.ir\.ir\[1\]
*321 sap_1\.ir\.ir\[2\]
*322 sap_1\.ir\.ir\[3\]
*323 sap_1\.ir\.load
*324 sap_1\.ir_en
*325 sap_1\.mar_load
*326 sap_1\.mem\.mar\[0\]
*327 sap_1\.mem\.mar\[1\]
*328 sap_1\.mem\.mar\[2\]
*329 sap_1\.mem\.mar\[3\]
*330 sap_1\.mem\.out\[0\]
*331 sap_1\.mem\.out\[1\]
*332 sap_1\.mem\.out\[2\]
*333 sap_1\.mem\.out\[3\]
*334 sap_1\.mem\.out\[4\]
*335 sap_1\.mem\.out\[5\]
*336 sap_1\.mem\.out\[6\]
*337 sap_1\.mem_en
*338 sap_1\.pc\.inc
*339 sap_1\.pc\.out\[0\]
*340 sap_1\.pc\.out\[1\]
*341 sap_1\.pc\.out\[2\]
*342 sap_1\.pc\.out\[3\]
*343 sap_1\.pc_en
*344 FILLER_0_0_109
*345 FILLER_0_0_113
*346 FILLER_0_0_125
*347 FILLER_0_0_137
*348 FILLER_0_0_141
*349 FILLER_0_0_15
*350 FILLER_0_0_153
*351 FILLER_0_0_165
*352 FILLER_0_0_169
*353 FILLER_0_0_181
*354 FILLER_0_0_193
*355 FILLER_0_0_197
*356 FILLER_0_0_209
*357 FILLER_0_0_221
*358 FILLER_0_0_225
*359 FILLER_0_0_237
*360 FILLER_0_0_249
*361 FILLER_0_0_253
*362 FILLER_0_0_265
*363 FILLER_0_0_27
*364 FILLER_0_0_277
*365 FILLER_0_0_281
*366 FILLER_0_0_29
*367 FILLER_0_0_293
*368 FILLER_0_0_3
*369 FILLER_0_0_305
*370 FILLER_0_0_309
*371 FILLER_0_0_321
*372 FILLER_0_0_333
*373 FILLER_0_0_337
*374 FILLER_0_0_349
*375 FILLER_0_0_41
*376 FILLER_0_0_53
*377 FILLER_0_0_57
*378 FILLER_0_0_69
*379 FILLER_0_0_81
*380 FILLER_0_0_85
*381 FILLER_0_0_97
*382 FILLER_0_10_109
*383 FILLER_0_10_121
*384 FILLER_0_10_133
*385 FILLER_0_10_139
*386 FILLER_0_10_141
*387 FILLER_0_10_15
*388 FILLER_0_10_153
*389 FILLER_0_10_165
*390 FILLER_0_10_177
*391 FILLER_0_10_189
*392 FILLER_0_10_195
*393 FILLER_0_10_197
*394 FILLER_0_10_209
*395 FILLER_0_10_221
*396 FILLER_0_10_233
*397 FILLER_0_10_245
*398 FILLER_0_10_251
*399 FILLER_0_10_253
*400 FILLER_0_10_265
*401 FILLER_0_10_27
*402 FILLER_0_10_277
*403 FILLER_0_10_289
*404 FILLER_0_10_29
*405 FILLER_0_10_3
*406 FILLER_0_10_301
*407 FILLER_0_10_307
*408 FILLER_0_10_309
*409 FILLER_0_10_321
*410 FILLER_0_10_333
*411 FILLER_0_10_345
*412 FILLER_0_10_41
*413 FILLER_0_10_53
*414 FILLER_0_10_65
*415 FILLER_0_10_77
*416 FILLER_0_10_83
*417 FILLER_0_10_85
*418 FILLER_0_10_97
*419 FILLER_0_11_105
*420 FILLER_0_11_111
*421 FILLER_0_11_113
*422 FILLER_0_11_125
*423 FILLER_0_11_137
*424 FILLER_0_11_149
*425 FILLER_0_11_15
*426 FILLER_0_11_161
*427 FILLER_0_11_167
*428 FILLER_0_11_169
*429 FILLER_0_11_181
*430 FILLER_0_11_193
*431 FILLER_0_11_205
*432 FILLER_0_11_217
*433 FILLER_0_11_223
*434 FILLER_0_11_225
*435 FILLER_0_11_237
*436 FILLER_0_11_249
*437 FILLER_0_11_261
*438 FILLER_0_11_27
*439 FILLER_0_11_273
*440 FILLER_0_11_279
*441 FILLER_0_11_281
*442 FILLER_0_11_293
*443 FILLER_0_11_3
*444 FILLER_0_11_305
*445 FILLER_0_11_317
*446 FILLER_0_11_329
*447 FILLER_0_11_335
*448 FILLER_0_11_337
*449 FILLER_0_11_349
*450 FILLER_0_11_39
*451 FILLER_0_11_51
*452 FILLER_0_11_55
*453 FILLER_0_11_57
*454 FILLER_0_11_69
*455 FILLER_0_11_81
*456 FILLER_0_11_93
*457 FILLER_0_12_109
*458 FILLER_0_12_121
*459 FILLER_0_12_133
*460 FILLER_0_12_139
*461 FILLER_0_12_141
*462 FILLER_0_12_15
*463 FILLER_0_12_153
*464 FILLER_0_12_165
*465 FILLER_0_12_177
*466 FILLER_0_12_189
*467 FILLER_0_12_195
*468 FILLER_0_12_197
*469 FILLER_0_12_209
*470 FILLER_0_12_221
*471 FILLER_0_12_233
*472 FILLER_0_12_245
*473 FILLER_0_12_251
*474 FILLER_0_12_253
*475 FILLER_0_12_265
*476 FILLER_0_12_27
*477 FILLER_0_12_277
*478 FILLER_0_12_289
*479 FILLER_0_12_29
*480 FILLER_0_12_3
*481 FILLER_0_12_301
*482 FILLER_0_12_307
*483 FILLER_0_12_309
*484 FILLER_0_12_321
*485 FILLER_0_12_333
*486 FILLER_0_12_345
*487 FILLER_0_12_41
*488 FILLER_0_12_53
*489 FILLER_0_12_65
*490 FILLER_0_12_77
*491 FILLER_0_12_83
*492 FILLER_0_12_85
*493 FILLER_0_12_97
*494 FILLER_0_13_105
*495 FILLER_0_13_111
*496 FILLER_0_13_113
*497 FILLER_0_13_125
*498 FILLER_0_13_137
*499 FILLER_0_13_149
*500 FILLER_0_13_15
*501 FILLER_0_13_161
*502 FILLER_0_13_167
*503 FILLER_0_13_169
*504 FILLER_0_13_181
*505 FILLER_0_13_193
*506 FILLER_0_13_205
*507 FILLER_0_13_217
*508 FILLER_0_13_223
*509 FILLER_0_13_225
*510 FILLER_0_13_237
*511 FILLER_0_13_249
*512 FILLER_0_13_261
*513 FILLER_0_13_27
*514 FILLER_0_13_273
*515 FILLER_0_13_279
*516 FILLER_0_13_281
*517 FILLER_0_13_293
*518 FILLER_0_13_3
*519 FILLER_0_13_305
*520 FILLER_0_13_317
*521 FILLER_0_13_329
*522 FILLER_0_13_335
*523 FILLER_0_13_337
*524 FILLER_0_13_349
*525 FILLER_0_13_39
*526 FILLER_0_13_51
*527 FILLER_0_13_55
*528 FILLER_0_13_57
*529 FILLER_0_13_69
*530 FILLER_0_13_81
*531 FILLER_0_13_93
*532 FILLER_0_14_109
*533 FILLER_0_14_121
*534 FILLER_0_14_133
*535 FILLER_0_14_139
*536 FILLER_0_14_141
*537 FILLER_0_14_15
*538 FILLER_0_14_153
*539 FILLER_0_14_165
*540 FILLER_0_14_177
*541 FILLER_0_14_189
*542 FILLER_0_14_195
*543 FILLER_0_14_197
*544 FILLER_0_14_209
*545 FILLER_0_14_221
*546 FILLER_0_14_233
*547 FILLER_0_14_245
*548 FILLER_0_14_251
*549 FILLER_0_14_253
*550 FILLER_0_14_265
*551 FILLER_0_14_27
*552 FILLER_0_14_277
*553 FILLER_0_14_289
*554 FILLER_0_14_29
*555 FILLER_0_14_3
*556 FILLER_0_14_301
*557 FILLER_0_14_307
*558 FILLER_0_14_309
*559 FILLER_0_14_321
*560 FILLER_0_14_333
*561 FILLER_0_14_345
*562 FILLER_0_14_41
*563 FILLER_0_14_53
*564 FILLER_0_14_65
*565 FILLER_0_14_77
*566 FILLER_0_14_83
*567 FILLER_0_14_85
*568 FILLER_0_14_97
*569 FILLER_0_15_105
*570 FILLER_0_15_111
*571 FILLER_0_15_113
*572 FILLER_0_15_125
*573 FILLER_0_15_137
*574 FILLER_0_15_149
*575 FILLER_0_15_15
*576 FILLER_0_15_161
*577 FILLER_0_15_167
*578 FILLER_0_15_169
*579 FILLER_0_15_181
*580 FILLER_0_15_193
*581 FILLER_0_15_205
*582 FILLER_0_15_217
*583 FILLER_0_15_223
*584 FILLER_0_15_225
*585 FILLER_0_15_237
*586 FILLER_0_15_249
*587 FILLER_0_15_261
*588 FILLER_0_15_27
*589 FILLER_0_15_273
*590 FILLER_0_15_279
*591 FILLER_0_15_281
*592 FILLER_0_15_293
*593 FILLER_0_15_3
*594 FILLER_0_15_305
*595 FILLER_0_15_317
*596 FILLER_0_15_329
*597 FILLER_0_15_335
*598 FILLER_0_15_337
*599 FILLER_0_15_349
*600 FILLER_0_15_39
*601 FILLER_0_15_51
*602 FILLER_0_15_55
*603 FILLER_0_15_57
*604 FILLER_0_15_69
*605 FILLER_0_15_81
*606 FILLER_0_15_93
*607 FILLER_0_16_109
*608 FILLER_0_16_121
*609 FILLER_0_16_133
*610 FILLER_0_16_139
*611 FILLER_0_16_141
*612 FILLER_0_16_15
*613 FILLER_0_16_153
*614 FILLER_0_16_165
*615 FILLER_0_16_177
*616 FILLER_0_16_189
*617 FILLER_0_16_195
*618 FILLER_0_16_197
*619 FILLER_0_16_209
*620 FILLER_0_16_221
*621 FILLER_0_16_233
*622 FILLER_0_16_245
*623 FILLER_0_16_251
*624 FILLER_0_16_253
*625 FILLER_0_16_265
*626 FILLER_0_16_27
*627 FILLER_0_16_277
*628 FILLER_0_16_289
*629 FILLER_0_16_29
*630 FILLER_0_16_3
*631 FILLER_0_16_301
*632 FILLER_0_16_307
*633 FILLER_0_16_309
*634 FILLER_0_16_321
*635 FILLER_0_16_333
*636 FILLER_0_16_345
*637 FILLER_0_16_41
*638 FILLER_0_16_53
*639 FILLER_0_16_65
*640 FILLER_0_16_77
*641 FILLER_0_16_83
*642 FILLER_0_16_85
*643 FILLER_0_16_97
*644 FILLER_0_17_105
*645 FILLER_0_17_111
*646 FILLER_0_17_113
*647 FILLER_0_17_125
*648 FILLER_0_17_137
*649 FILLER_0_17_149
*650 FILLER_0_17_15
*651 FILLER_0_17_161
*652 FILLER_0_17_167
*653 FILLER_0_17_169
*654 FILLER_0_17_181
*655 FILLER_0_17_193
*656 FILLER_0_17_205
*657 FILLER_0_17_217
*658 FILLER_0_17_223
*659 FILLER_0_17_225
*660 FILLER_0_17_237
*661 FILLER_0_17_249
*662 FILLER_0_17_261
*663 FILLER_0_17_27
*664 FILLER_0_17_273
*665 FILLER_0_17_279
*666 FILLER_0_17_281
*667 FILLER_0_17_293
*668 FILLER_0_17_3
*669 FILLER_0_17_305
*670 FILLER_0_17_317
*671 FILLER_0_17_329
*672 FILLER_0_17_335
*673 FILLER_0_17_337
*674 FILLER_0_17_349
*675 FILLER_0_17_39
*676 FILLER_0_17_51
*677 FILLER_0_17_55
*678 FILLER_0_17_57
*679 FILLER_0_17_69
*680 FILLER_0_17_81
*681 FILLER_0_17_93
*682 FILLER_0_18_109
*683 FILLER_0_18_121
*684 FILLER_0_18_133
*685 FILLER_0_18_139
*686 FILLER_0_18_141
*687 FILLER_0_18_15
*688 FILLER_0_18_153
*689 FILLER_0_18_165
*690 FILLER_0_18_177
*691 FILLER_0_18_189
*692 FILLER_0_18_195
*693 FILLER_0_18_197
*694 FILLER_0_18_209
*695 FILLER_0_18_221
*696 FILLER_0_18_233
*697 FILLER_0_18_245
*698 FILLER_0_18_251
*699 FILLER_0_18_253
*700 FILLER_0_18_265
*701 FILLER_0_18_27
*702 FILLER_0_18_277
*703 FILLER_0_18_289
*704 FILLER_0_18_29
*705 FILLER_0_18_3
*706 FILLER_0_18_301
*707 FILLER_0_18_307
*708 FILLER_0_18_309
*709 FILLER_0_18_321
*710 FILLER_0_18_333
*711 FILLER_0_18_345
*712 FILLER_0_18_41
*713 FILLER_0_18_53
*714 FILLER_0_18_65
*715 FILLER_0_18_77
*716 FILLER_0_18_83
*717 FILLER_0_18_85
*718 FILLER_0_18_97
*719 FILLER_0_19_105
*720 FILLER_0_19_111
*721 FILLER_0_19_113
*722 FILLER_0_19_125
*723 FILLER_0_19_137
*724 FILLER_0_19_149
*725 FILLER_0_19_15
*726 FILLER_0_19_161
*727 FILLER_0_19_167
*728 FILLER_0_19_169
*729 FILLER_0_19_181
*730 FILLER_0_19_193
*731 FILLER_0_19_205
*732 FILLER_0_19_217
*733 FILLER_0_19_223
*734 FILLER_0_19_225
*735 FILLER_0_19_237
*736 FILLER_0_19_256
*737 FILLER_0_19_268
*738 FILLER_0_19_27
*739 FILLER_0_19_281
*740 FILLER_0_19_293
*741 FILLER_0_19_3
*742 FILLER_0_19_305
*743 FILLER_0_19_317
*744 FILLER_0_19_329
*745 FILLER_0_19_335
*746 FILLER_0_19_337
*747 FILLER_0_19_349
*748 FILLER_0_19_39
*749 FILLER_0_19_51
*750 FILLER_0_19_55
*751 FILLER_0_19_57
*752 FILLER_0_19_69
*753 FILLER_0_19_81
*754 FILLER_0_19_93
*755 FILLER_0_1_105
*756 FILLER_0_1_111
*757 FILLER_0_1_113
*758 FILLER_0_1_125
*759 FILLER_0_1_137
*760 FILLER_0_1_149
*761 FILLER_0_1_15
*762 FILLER_0_1_161
*763 FILLER_0_1_167
*764 FILLER_0_1_169
*765 FILLER_0_1_181
*766 FILLER_0_1_193
*767 FILLER_0_1_205
*768 FILLER_0_1_217
*769 FILLER_0_1_223
*770 FILLER_0_1_225
*771 FILLER_0_1_237
*772 FILLER_0_1_249
*773 FILLER_0_1_261
*774 FILLER_0_1_27
*775 FILLER_0_1_273
*776 FILLER_0_1_279
*777 FILLER_0_1_281
*778 FILLER_0_1_293
*779 FILLER_0_1_3
*780 FILLER_0_1_305
*781 FILLER_0_1_317
*782 FILLER_0_1_329
*783 FILLER_0_1_335
*784 FILLER_0_1_337
*785 FILLER_0_1_349
*786 FILLER_0_1_39
*787 FILLER_0_1_51
*788 FILLER_0_1_55
*789 FILLER_0_1_57
*790 FILLER_0_1_69
*791 FILLER_0_1_81
*792 FILLER_0_1_93
*793 FILLER_0_20_109
*794 FILLER_0_20_121
*795 FILLER_0_20_133
*796 FILLER_0_20_139
*797 FILLER_0_20_141
*798 FILLER_0_20_15
*799 FILLER_0_20_153
*800 FILLER_0_20_165
*801 FILLER_0_20_177
*802 FILLER_0_20_189
*803 FILLER_0_20_195
*804 FILLER_0_20_213
*805 FILLER_0_20_221
*806 FILLER_0_20_249
*807 FILLER_0_20_253
*808 FILLER_0_20_265
*809 FILLER_0_20_27
*810 FILLER_0_20_277
*811 FILLER_0_20_289
*812 FILLER_0_20_29
*813 FILLER_0_20_3
*814 FILLER_0_20_301
*815 FILLER_0_20_307
*816 FILLER_0_20_309
*817 FILLER_0_20_321
*818 FILLER_0_20_333
*819 FILLER_0_20_345
*820 FILLER_0_20_41
*821 FILLER_0_20_53
*822 FILLER_0_20_65
*823 FILLER_0_20_77
*824 FILLER_0_20_83
*825 FILLER_0_20_85
*826 FILLER_0_20_97
*827 FILLER_0_21_105
*828 FILLER_0_21_111
*829 FILLER_0_21_113
*830 FILLER_0_21_121
*831 FILLER_0_21_140
*832 FILLER_0_21_148
*833 FILLER_0_21_15
*834 FILLER_0_21_169
*835 FILLER_0_21_181
*836 FILLER_0_21_185
*837 FILLER_0_21_219
*838 FILLER_0_21_223
*839 FILLER_0_21_256
*840 FILLER_0_21_268
*841 FILLER_0_21_27
*842 FILLER_0_21_297
*843 FILLER_0_21_3
*844 FILLER_0_21_309
*845 FILLER_0_21_321
*846 FILLER_0_21_333
*847 FILLER_0_21_337
*848 FILLER_0_21_349
*849 FILLER_0_21_39
*850 FILLER_0_21_51
*851 FILLER_0_21_55
*852 FILLER_0_21_57
*853 FILLER_0_21_69
*854 FILLER_0_21_81
*855 FILLER_0_21_93
*856 FILLER_0_22_109
*857 FILLER_0_22_117
*858 FILLER_0_22_125
*859 FILLER_0_22_132
*860 FILLER_0_22_141
*861 FILLER_0_22_147
*862 FILLER_0_22_15
*863 FILLER_0_22_181
*864 FILLER_0_22_195
*865 FILLER_0_22_204
*866 FILLER_0_22_216
*867 FILLER_0_22_222
*868 FILLER_0_22_250
*869 FILLER_0_22_268
*870 FILLER_0_22_27
*871 FILLER_0_22_276
*872 FILLER_0_22_29
*873 FILLER_0_22_295
*874 FILLER_0_22_3
*875 FILLER_0_22_307
*876 FILLER_0_22_309
*877 FILLER_0_22_321
*878 FILLER_0_22_333
*879 FILLER_0_22_345
*880 FILLER_0_22_41
*881 FILLER_0_22_53
*882 FILLER_0_22_65
*883 FILLER_0_22_77
*884 FILLER_0_22_83
*885 FILLER_0_22_85
*886 FILLER_0_22_97
*887 FILLER_0_23_105
*888 FILLER_0_23_111
*889 FILLER_0_23_149
*890 FILLER_0_23_15
*891 FILLER_0_23_177
*892 FILLER_0_23_185
*893 FILLER_0_23_197
*894 FILLER_0_23_209
*895 FILLER_0_23_221
*896 FILLER_0_23_225
*897 FILLER_0_23_236
*898 FILLER_0_23_250
*899 FILLER_0_23_267
*900 FILLER_0_23_27
*901 FILLER_0_23_279
*902 FILLER_0_23_281
*903 FILLER_0_23_3
*904 FILLER_0_23_300
*905 FILLER_0_23_312
*906 FILLER_0_23_324
*907 FILLER_0_23_337
*908 FILLER_0_23_349
*909 FILLER_0_23_39
*910 FILLER_0_23_51
*911 FILLER_0_23_55
*912 FILLER_0_23_57
*913 FILLER_0_23_69
*914 FILLER_0_23_81
*915 FILLER_0_23_93
*916 FILLER_0_24_109
*917 FILLER_0_24_121
*918 FILLER_0_24_129
*919 FILLER_0_24_138
*920 FILLER_0_24_141
*921 FILLER_0_24_15
*922 FILLER_0_24_189
*923 FILLER_0_24_195
*924 FILLER_0_24_204
*925 FILLER_0_24_216
*926 FILLER_0_24_228
*927 FILLER_0_24_240
*928 FILLER_0_24_27
*929 FILLER_0_24_280
*930 FILLER_0_24_29
*931 FILLER_0_24_298
*932 FILLER_0_24_3
*933 FILLER_0_24_306
*934 FILLER_0_24_309
*935 FILLER_0_24_321
*936 FILLER_0_24_333
*937 FILLER_0_24_345
*938 FILLER_0_24_41
*939 FILLER_0_24_53
*940 FILLER_0_24_65
*941 FILLER_0_24_77
*942 FILLER_0_24_83
*943 FILLER_0_24_85
*944 FILLER_0_24_97
*945 FILLER_0_25_110
*946 FILLER_0_25_113
*947 FILLER_0_25_125
*948 FILLER_0_25_136
*949 FILLER_0_25_140
*950 FILLER_0_25_15
*951 FILLER_0_25_166
*952 FILLER_0_25_177
*953 FILLER_0_25_184
*954 FILLER_0_25_213
*955 FILLER_0_25_221
*956 FILLER_0_25_231
*957 FILLER_0_25_243
*958 FILLER_0_25_255
*959 FILLER_0_25_263
*960 FILLER_0_25_268
*961 FILLER_0_25_27
*962 FILLER_0_25_3
*963 FILLER_0_25_307
*964 FILLER_0_25_327
*965 FILLER_0_25_335
*966 FILLER_0_25_337
*967 FILLER_0_25_349
*968 FILLER_0_25_39
*969 FILLER_0_25_51
*970 FILLER_0_25_55
*971 FILLER_0_25_57
*972 FILLER_0_25_69
*973 FILLER_0_25_81
*974 FILLER_0_26_103
*975 FILLER_0_26_113
*976 FILLER_0_26_138
*977 FILLER_0_26_141
*978 FILLER_0_26_15
*979 FILLER_0_26_153
*980 FILLER_0_26_191
*981 FILLER_0_26_195
*982 FILLER_0_26_220
*983 FILLER_0_26_227
*984 FILLER_0_26_239
*985 FILLER_0_26_251
*986 FILLER_0_26_253
*987 FILLER_0_26_260
*988 FILLER_0_26_268
*989 FILLER_0_26_27
*990 FILLER_0_26_286
*991 FILLER_0_26_29
*992 FILLER_0_26_3
*993 FILLER_0_26_307
*994 FILLER_0_26_309
*995 FILLER_0_26_332
*996 FILLER_0_26_344
*997 FILLER_0_26_350
*998 FILLER_0_26_41
*999 FILLER_0_26_53
*1000 FILLER_0_26_65
*1001 FILLER_0_26_77
*1002 FILLER_0_26_83
*1003 FILLER_0_26_85
*1004 FILLER_0_26_93
*1005 FILLER_0_27_107
*1006 FILLER_0_27_113
*1007 FILLER_0_27_131
*1008 FILLER_0_27_142
*1009 FILLER_0_27_15
*1010 FILLER_0_27_154
*1011 FILLER_0_27_188
*1012 FILLER_0_27_196
*1013 FILLER_0_27_202
*1014 FILLER_0_27_220
*1015 FILLER_0_27_27
*1016 FILLER_0_27_273
*1017 FILLER_0_27_295
*1018 FILLER_0_27_3
*1019 FILLER_0_27_305
*1020 FILLER_0_27_325
*1021 FILLER_0_27_333
*1022 FILLER_0_27_337
*1023 FILLER_0_27_349
*1024 FILLER_0_27_39
*1025 FILLER_0_27_51
*1026 FILLER_0_27_55
*1027 FILLER_0_27_57
*1028 FILLER_0_27_69
*1029 FILLER_0_27_81
*1030 FILLER_0_27_89
*1031 FILLER_0_28_108
*1032 FILLER_0_28_112
*1033 FILLER_0_28_136
*1034 FILLER_0_28_141
*1035 FILLER_0_28_15
*1036 FILLER_0_28_156
*1037 FILLER_0_28_162
*1038 FILLER_0_28_168
*1039 FILLER_0_28_190
*1040 FILLER_0_28_214
*1041 FILLER_0_28_222
*1042 FILLER_0_28_263
*1043 FILLER_0_28_27
*1044 FILLER_0_28_278
*1045 FILLER_0_28_29
*1046 FILLER_0_28_290
*1047 FILLER_0_28_296
*1048 FILLER_0_28_3
*1049 FILLER_0_28_307
*1050 FILLER_0_28_309
*1051 FILLER_0_28_321
*1052 FILLER_0_28_333
*1053 FILLER_0_28_345
*1054 FILLER_0_28_41
*1055 FILLER_0_28_53
*1056 FILLER_0_28_65
*1057 FILLER_0_28_77
*1058 FILLER_0_28_83
*1059 FILLER_0_28_85
*1060 FILLER_0_29_102
*1061 FILLER_0_29_133
*1062 FILLER_0_29_15
*1063 FILLER_0_29_162
*1064 FILLER_0_29_169
*1065 FILLER_0_29_191
*1066 FILLER_0_29_202
*1067 FILLER_0_29_229
*1068 FILLER_0_29_27
*1069 FILLER_0_29_286
*1070 FILLER_0_29_298
*1071 FILLER_0_29_3
*1072 FILLER_0_29_302
*1073 FILLER_0_29_327
*1074 FILLER_0_29_335
*1075 FILLER_0_29_337
*1076 FILLER_0_29_349
*1077 FILLER_0_29_39
*1078 FILLER_0_29_51
*1079 FILLER_0_29_55
*1080 FILLER_0_29_57
*1081 FILLER_0_29_69
*1082 FILLER_0_29_81
*1083 FILLER_0_29_89
*1084 FILLER_0_2_109
*1085 FILLER_0_2_121
*1086 FILLER_0_2_133
*1087 FILLER_0_2_139
*1088 FILLER_0_2_141
*1089 FILLER_0_2_15
*1090 FILLER_0_2_153
*1091 FILLER_0_2_165
*1092 FILLER_0_2_177
*1093 FILLER_0_2_189
*1094 FILLER_0_2_195
*1095 FILLER_0_2_197
*1096 FILLER_0_2_209
*1097 FILLER_0_2_221
*1098 FILLER_0_2_233
*1099 FILLER_0_2_245
*1100 FILLER_0_2_251
*1101 FILLER_0_2_253
*1102 FILLER_0_2_265
*1103 FILLER_0_2_27
*1104 FILLER_0_2_277
*1105 FILLER_0_2_289
*1106 FILLER_0_2_29
*1107 FILLER_0_2_3
*1108 FILLER_0_2_301
*1109 FILLER_0_2_307
*1110 FILLER_0_2_309
*1111 FILLER_0_2_321
*1112 FILLER_0_2_333
*1113 FILLER_0_2_345
*1114 FILLER_0_2_41
*1115 FILLER_0_2_53
*1116 FILLER_0_2_65
*1117 FILLER_0_2_77
*1118 FILLER_0_2_83
*1119 FILLER_0_2_85
*1120 FILLER_0_2_97
*1121 FILLER_0_30_110
*1122 FILLER_0_30_122
*1123 FILLER_0_30_134
*1124 FILLER_0_30_141
*1125 FILLER_0_30_15
*1126 FILLER_0_30_168
*1127 FILLER_0_30_179
*1128 FILLER_0_30_187
*1129 FILLER_0_30_197
*1130 FILLER_0_30_229
*1131 FILLER_0_30_244
*1132 FILLER_0_30_253
*1133 FILLER_0_30_27
*1134 FILLER_0_30_282
*1135 FILLER_0_30_29
*1136 FILLER_0_30_3
*1137 FILLER_0_30_334
*1138 FILLER_0_30_346
*1139 FILLER_0_30_350
*1140 FILLER_0_30_41
*1141 FILLER_0_30_53
*1142 FILLER_0_30_65
*1143 FILLER_0_30_77
*1144 FILLER_0_30_83
*1145 FILLER_0_30_85
*1146 FILLER_0_30_93
*1147 FILLER_0_30_98
*1148 FILLER_0_31_109
*1149 FILLER_0_31_113
*1150 FILLER_0_31_15
*1151 FILLER_0_31_161
*1152 FILLER_0_31_167
*1153 FILLER_0_31_169
*1154 FILLER_0_31_181
*1155 FILLER_0_31_193
*1156 FILLER_0_31_225
*1157 FILLER_0_31_234
*1158 FILLER_0_31_246
*1159 FILLER_0_31_254
*1160 FILLER_0_31_259
*1161 FILLER_0_31_27
*1162 FILLER_0_31_276
*1163 FILLER_0_31_3
*1164 FILLER_0_31_300
*1165 FILLER_0_31_307
*1166 FILLER_0_31_327
*1167 FILLER_0_31_335
*1168 FILLER_0_31_337
*1169 FILLER_0_31_349
*1170 FILLER_0_31_39
*1171 FILLER_0_31_51
*1172 FILLER_0_31_55
*1173 FILLER_0_31_57
*1174 FILLER_0_31_69
*1175 FILLER_0_31_81
*1176 FILLER_0_32_132
*1177 FILLER_0_32_141
*1178 FILLER_0_32_15
*1179 FILLER_0_32_158
*1180 FILLER_0_32_164
*1181 FILLER_0_32_169
*1182 FILLER_0_32_181
*1183 FILLER_0_32_189
*1184 FILLER_0_32_197
*1185 FILLER_0_32_228
*1186 FILLER_0_32_246
*1187 FILLER_0_32_260
*1188 FILLER_0_32_268
*1189 FILLER_0_32_27
*1190 FILLER_0_32_277
*1191 FILLER_0_32_29
*1192 FILLER_0_32_3
*1193 FILLER_0_32_300
*1194 FILLER_0_32_304
*1195 FILLER_0_32_318
*1196 FILLER_0_32_330
*1197 FILLER_0_32_342
*1198 FILLER_0_32_350
*1199 FILLER_0_32_41
*1200 FILLER_0_32_53
*1201 FILLER_0_32_65
*1202 FILLER_0_32_77
*1203 FILLER_0_32_83
*1204 FILLER_0_32_85
*1205 FILLER_0_33_108
*1206 FILLER_0_33_113
*1207 FILLER_0_33_125
*1208 FILLER_0_33_131
*1209 FILLER_0_33_135
*1210 FILLER_0_33_139
*1211 FILLER_0_33_146
*1212 FILLER_0_33_15
*1213 FILLER_0_33_158
*1214 FILLER_0_33_166
*1215 FILLER_0_33_169
*1216 FILLER_0_33_195
*1217 FILLER_0_33_206
*1218 FILLER_0_33_218
*1219 FILLER_0_33_252
*1220 FILLER_0_33_264
*1221 FILLER_0_33_268
*1222 FILLER_0_33_27
*1223 FILLER_0_33_279
*1224 FILLER_0_33_281
*1225 FILLER_0_33_293
*1226 FILLER_0_33_3
*1227 FILLER_0_33_305
*1228 FILLER_0_33_317
*1229 FILLER_0_33_329
*1230 FILLER_0_33_335
*1231 FILLER_0_33_337
*1232 FILLER_0_33_349
*1233 FILLER_0_33_39
*1234 FILLER_0_33_51
*1235 FILLER_0_33_55
*1236 FILLER_0_33_57
*1237 FILLER_0_33_69
*1238 FILLER_0_33_81
*1239 FILLER_0_33_89
*1240 FILLER_0_33_94
*1241 FILLER_0_34_111
*1242 FILLER_0_34_119
*1243 FILLER_0_34_127
*1244 FILLER_0_34_139
*1245 FILLER_0_34_141
*1246 FILLER_0_34_15
*1247 FILLER_0_34_153
*1248 FILLER_0_34_161
*1249 FILLER_0_34_188
*1250 FILLER_0_34_197
*1251 FILLER_0_34_209
*1252 FILLER_0_34_221
*1253 FILLER_0_34_229
*1254 FILLER_0_34_235
*1255 FILLER_0_34_247
*1256 FILLER_0_34_251
*1257 FILLER_0_34_253
*1258 FILLER_0_34_265
*1259 FILLER_0_34_27
*1260 FILLER_0_34_275
*1261 FILLER_0_34_284
*1262 FILLER_0_34_29
*1263 FILLER_0_34_295
*1264 FILLER_0_34_3
*1265 FILLER_0_34_307
*1266 FILLER_0_34_309
*1267 FILLER_0_34_321
*1268 FILLER_0_34_333
*1269 FILLER_0_34_345
*1270 FILLER_0_34_41
*1271 FILLER_0_34_53
*1272 FILLER_0_34_65
*1273 FILLER_0_34_77
*1274 FILLER_0_34_83
*1275 FILLER_0_34_85
*1276 FILLER_0_35_110
*1277 FILLER_0_35_135
*1278 FILLER_0_35_15
*1279 FILLER_0_35_150
*1280 FILLER_0_35_162
*1281 FILLER_0_35_169
*1282 FILLER_0_35_183
*1283 FILLER_0_35_195
*1284 FILLER_0_35_200
*1285 FILLER_0_35_218
*1286 FILLER_0_35_232
*1287 FILLER_0_35_244
*1288 FILLER_0_35_256
*1289 FILLER_0_35_268
*1290 FILLER_0_35_27
*1291 FILLER_0_35_272
*1292 FILLER_0_35_3
*1293 FILLER_0_35_303
*1294 FILLER_0_35_315
*1295 FILLER_0_35_327
*1296 FILLER_0_35_335
*1297 FILLER_0_35_337
*1298 FILLER_0_35_349
*1299 FILLER_0_35_39
*1300 FILLER_0_35_51
*1301 FILLER_0_35_55
*1302 FILLER_0_35_57
*1303 FILLER_0_35_69
*1304 FILLER_0_35_81
*1305 FILLER_0_35_93
*1306 FILLER_0_35_99
*1307 FILLER_0_36_126
*1308 FILLER_0_36_134
*1309 FILLER_0_36_15
*1310 FILLER_0_36_166
*1311 FILLER_0_36_170
*1312 FILLER_0_36_178
*1313 FILLER_0_36_190
*1314 FILLER_0_36_197
*1315 FILLER_0_36_207
*1316 FILLER_0_36_225
*1317 FILLER_0_36_235
*1318 FILLER_0_36_241
*1319 FILLER_0_36_251
*1320 FILLER_0_36_269
*1321 FILLER_0_36_27
*1322 FILLER_0_36_273
*1323 FILLER_0_36_29
*1324 FILLER_0_36_3
*1325 FILLER_0_36_300
*1326 FILLER_0_36_309
*1327 FILLER_0_36_321
*1328 FILLER_0_36_333
*1329 FILLER_0_36_345
*1330 FILLER_0_36_41
*1331 FILLER_0_36_53
*1332 FILLER_0_36_65
*1333 FILLER_0_36_77
*1334 FILLER_0_36_83
*1335 FILLER_0_37_113
*1336 FILLER_0_37_125
*1337 FILLER_0_37_129
*1338 FILLER_0_37_15
*1339 FILLER_0_37_151
*1340 FILLER_0_37_185
*1341 FILLER_0_37_225
*1342 FILLER_0_37_233
*1343 FILLER_0_37_27
*1344 FILLER_0_37_279
*1345 FILLER_0_37_297
*1346 FILLER_0_37_3
*1347 FILLER_0_37_309
*1348 FILLER_0_37_321
*1349 FILLER_0_37_333
*1350 FILLER_0_37_337
*1351 FILLER_0_37_349
*1352 FILLER_0_37_39
*1353 FILLER_0_37_51
*1354 FILLER_0_37_55
*1355 FILLER_0_37_57
*1356 FILLER_0_37_69
*1357 FILLER_0_37_81
*1358 FILLER_0_37_93
*1359 FILLER_0_38_104
*1360 FILLER_0_38_110
*1361 FILLER_0_38_116
*1362 FILLER_0_38_122
*1363 FILLER_0_38_128
*1364 FILLER_0_38_134
*1365 FILLER_0_38_141
*1366 FILLER_0_38_146
*1367 FILLER_0_38_15
*1368 FILLER_0_38_152
*1369 FILLER_0_38_158
*1370 FILLER_0_38_166
*1371 FILLER_0_38_169
*1372 FILLER_0_38_181
*1373 FILLER_0_38_193
*1374 FILLER_0_38_200
*1375 FILLER_0_38_214
*1376 FILLER_0_38_222
*1377 FILLER_0_38_225
*1378 FILLER_0_38_237
*1379 FILLER_0_38_248
*1380 FILLER_0_38_253
*1381 FILLER_0_38_259
*1382 FILLER_0_38_27
*1383 FILLER_0_38_271
*1384 FILLER_0_38_279
*1385 FILLER_0_38_281
*1386 FILLER_0_38_29
*1387 FILLER_0_38_293
*1388 FILLER_0_38_3
*1389 FILLER_0_38_305
*1390 FILLER_0_38_313
*1391 FILLER_0_38_325
*1392 FILLER_0_38_333
*1393 FILLER_0_38_337
*1394 FILLER_0_38_349
*1395 FILLER_0_38_41
*1396 FILLER_0_38_53
*1397 FILLER_0_38_57
*1398 FILLER_0_38_68
*1399 FILLER_0_38_74
*1400 FILLER_0_38_80
*1401 FILLER_0_38_88
*1402 FILLER_0_38_92
*1403 FILLER_0_38_98
*1404 FILLER_0_3_105
*1405 FILLER_0_3_111
*1406 FILLER_0_3_113
*1407 FILLER_0_3_125
*1408 FILLER_0_3_137
*1409 FILLER_0_3_149
*1410 FILLER_0_3_15
*1411 FILLER_0_3_161
*1412 FILLER_0_3_167
*1413 FILLER_0_3_169
*1414 FILLER_0_3_181
*1415 FILLER_0_3_193
*1416 FILLER_0_3_205
*1417 FILLER_0_3_217
*1418 FILLER_0_3_223
*1419 FILLER_0_3_225
*1420 FILLER_0_3_237
*1421 FILLER_0_3_249
*1422 FILLER_0_3_261
*1423 FILLER_0_3_27
*1424 FILLER_0_3_273
*1425 FILLER_0_3_279
*1426 FILLER_0_3_281
*1427 FILLER_0_3_293
*1428 FILLER_0_3_3
*1429 FILLER_0_3_305
*1430 FILLER_0_3_317
*1431 FILLER_0_3_329
*1432 FILLER_0_3_335
*1433 FILLER_0_3_337
*1434 FILLER_0_3_349
*1435 FILLER_0_3_39
*1436 FILLER_0_3_51
*1437 FILLER_0_3_55
*1438 FILLER_0_3_57
*1439 FILLER_0_3_69
*1440 FILLER_0_3_81
*1441 FILLER_0_3_93
*1442 FILLER_0_4_109
*1443 FILLER_0_4_121
*1444 FILLER_0_4_133
*1445 FILLER_0_4_139
*1446 FILLER_0_4_141
*1447 FILLER_0_4_15
*1448 FILLER_0_4_153
*1449 FILLER_0_4_165
*1450 FILLER_0_4_177
*1451 FILLER_0_4_189
*1452 FILLER_0_4_195
*1453 FILLER_0_4_197
*1454 FILLER_0_4_209
*1455 FILLER_0_4_221
*1456 FILLER_0_4_233
*1457 FILLER_0_4_245
*1458 FILLER_0_4_251
*1459 FILLER_0_4_253
*1460 FILLER_0_4_265
*1461 FILLER_0_4_27
*1462 FILLER_0_4_277
*1463 FILLER_0_4_289
*1464 FILLER_0_4_29
*1465 FILLER_0_4_3
*1466 FILLER_0_4_301
*1467 FILLER_0_4_307
*1468 FILLER_0_4_309
*1469 FILLER_0_4_321
*1470 FILLER_0_4_333
*1471 FILLER_0_4_345
*1472 FILLER_0_4_41
*1473 FILLER_0_4_53
*1474 FILLER_0_4_65
*1475 FILLER_0_4_77
*1476 FILLER_0_4_83
*1477 FILLER_0_4_85
*1478 FILLER_0_4_97
*1479 FILLER_0_5_105
*1480 FILLER_0_5_111
*1481 FILLER_0_5_113
*1482 FILLER_0_5_125
*1483 FILLER_0_5_137
*1484 FILLER_0_5_149
*1485 FILLER_0_5_15
*1486 FILLER_0_5_161
*1487 FILLER_0_5_167
*1488 FILLER_0_5_169
*1489 FILLER_0_5_181
*1490 FILLER_0_5_193
*1491 FILLER_0_5_205
*1492 FILLER_0_5_217
*1493 FILLER_0_5_223
*1494 FILLER_0_5_225
*1495 FILLER_0_5_237
*1496 FILLER_0_5_249
*1497 FILLER_0_5_261
*1498 FILLER_0_5_27
*1499 FILLER_0_5_273
*1500 FILLER_0_5_279
*1501 FILLER_0_5_281
*1502 FILLER_0_5_293
*1503 FILLER_0_5_3
*1504 FILLER_0_5_305
*1505 FILLER_0_5_317
*1506 FILLER_0_5_329
*1507 FILLER_0_5_335
*1508 FILLER_0_5_337
*1509 FILLER_0_5_349
*1510 FILLER_0_5_39
*1511 FILLER_0_5_51
*1512 FILLER_0_5_55
*1513 FILLER_0_5_57
*1514 FILLER_0_5_69
*1515 FILLER_0_5_81
*1516 FILLER_0_5_93
*1517 FILLER_0_6_109
*1518 FILLER_0_6_121
*1519 FILLER_0_6_133
*1520 FILLER_0_6_139
*1521 FILLER_0_6_141
*1522 FILLER_0_6_15
*1523 FILLER_0_6_153
*1524 FILLER_0_6_165
*1525 FILLER_0_6_177
*1526 FILLER_0_6_189
*1527 FILLER_0_6_195
*1528 FILLER_0_6_197
*1529 FILLER_0_6_209
*1530 FILLER_0_6_221
*1531 FILLER_0_6_233
*1532 FILLER_0_6_245
*1533 FILLER_0_6_251
*1534 FILLER_0_6_253
*1535 FILLER_0_6_265
*1536 FILLER_0_6_27
*1537 FILLER_0_6_277
*1538 FILLER_0_6_289
*1539 FILLER_0_6_29