*SPEF "ieee 1481-1999"
*DESIGN "tt_um_wokwi_380197591775930369"
*DATE "11:11:11 Fri 11 11, 1111"
*VENDOR "OpenRCX"
*PROGRAM "Parallel Extraction"
*VERSION "1.0"
*DESIGN_FLOW "NAME_SCOPE LOCAL" "PIN_CAP NONE"
*DIVIDER /
*DELIMITER :
*BUS_DELIMITER []
*T_UNIT 1 NS
*C_UNIT 1 PF
*R_UNIT 1 OHM
*L_UNIT 1 HENRY

*NAME_MAP
*3 clk
*4 ena
*5 rst_n
*6 ui_in[0]
*7 ui_in[1]
*8 ui_in[2]
*9 ui_in[3]
*10 ui_in[4]
*11 ui_in[5]
*12 ui_in[6]
*13 ui_in[7]
*14 uio_in[0]
*15 uio_in[1]
*16 uio_in[2]
*17 uio_in[3]
*18 uio_in[4]
*19 uio_in[5]
*20 uio_in[6]
*21 uio_in[7]
*22 net15
*23 net16
*24 net17
*25 net18
*26 net1
*27 net2
*28 net3
*29 net4
*30 net5
*31 net6
*32 net7
*33 net8
*34 net9
*35 net10
*36 net11
*37 net12
*38 uo_out[0]
*39 uo_out[1]
*40 uo_out[2]
*41 net13
*42 uo_out[4]
*43 uo_out[5]
*44 uo_out[6]
*45 net14
*46 clknet_0_clk
*47 clknet_1_0__leaf_clk
*48 clknet_1_1__leaf_clk
*49 FILLER_0_0_109
*50 FILLER_0_0_113
*51 FILLER_0_0_125
*52 FILLER_0_0_137
*53 FILLER_0_0_141
*54 FILLER_0_0_15
*55 FILLER_0_0_153
*56 FILLER_0_0_165
*57 FILLER_0_0_169
*58 FILLER_0_0_181
*59 FILLER_0_0_193
*60 FILLER_0_0_197
*61 FILLER_0_0_209
*62 FILLER_0_0_221
*63 FILLER_0_0_225
*64 FILLER_0_0_237
*65 FILLER_0_0_249
*66 FILLER_0_0_253
*67 FILLER_0_0_265
*68 FILLER_0_0_27
*69 FILLER_0_0_277
*70 FILLER_0_0_281
*71 FILLER_0_0_29
*72 FILLER_0_0_293
*73 FILLER_0_0_3
*74 FILLER_0_0_305
*75 FILLER_0_0_309
*76 FILLER_0_0_321
*77 FILLER_0_0_333
*78 FILLER_0_0_337
*79 FILLER_0_0_349
*80 FILLER_0_0_41
*81 FILLER_0_0_53
*82 FILLER_0_0_57
*83 FILLER_0_0_69
*84 FILLER_0_0_81
*85 FILLER_0_0_85
*86 FILLER_0_0_97
*87 FILLER_0_10_109
*88 FILLER_0_10_121
*89 FILLER_0_10_133
*90 FILLER_0_10_139
*91 FILLER_0_10_141
*92 FILLER_0_10_15
*93 FILLER_0_10_153
*94 FILLER_0_10_165
*95 FILLER_0_10_177
*96 FILLER_0_10_189
*97 FILLER_0_10_195
*98 FILLER_0_10_197
*99 FILLER_0_10_209
*100 FILLER_0_10_221
*101 FILLER_0_10_233
*102 FILLER_0_10_245
*103 FILLER_0_10_251
*104 FILLER_0_10_253
*105 FILLER_0_10_265
*106 FILLER_0_10_27
*107 FILLER_0_10_277
*108 FILLER_0_10_289
*109 FILLER_0_10_29
*110 FILLER_0_10_3
*111 FILLER_0_10_301
*112 FILLER_0_10_307
*113 FILLER_0_10_309
*114 FILLER_0_10_321
*115 FILLER_0_10_333
*116 FILLER_0_10_345
*117 FILLER_0_10_41
*118 FILLER_0_10_53
*119 FILLER_0_10_65
*120 FILLER_0_10_77
*121 FILLER_0_10_83
*122 FILLER_0_10_85
*123 FILLER_0_10_97
*124 FILLER_0_11_105
*125 FILLER_0_11_111
*126 FILLER_0_11_113
*127 FILLER_0_11_125
*128 FILLER_0_11_137
*129 FILLER_0_11_149
*130 FILLER_0_11_15
*131 FILLER_0_11_161
*132 FILLER_0_11_167
*133 FILLER_0_11_169
*134 FILLER_0_11_181
*135 FILLER_0_11_193
*136 FILLER_0_11_205
*137 FILLER_0_11_217
*138 FILLER_0_11_223
*139 FILLER_0_11_225
*140 FILLER_0_11_237
*141 FILLER_0_11_249
*142 FILLER_0_11_261
*143 FILLER_0_11_27
*144 FILLER_0_11_273
*145 FILLER_0_11_279
*146 FILLER_0_11_281
*147 FILLER_0_11_293
*148 FILLER_0_11_3
*149 FILLER_0_11_305
*150 FILLER_0_11_317
*151 FILLER_0_11_329
*152 FILLER_0_11_335
*153 FILLER_0_11_337
*154 FILLER_0_11_349
*155 FILLER_0_11_39
*156 FILLER_0_11_51
*157 FILLER_0_11_55
*158 FILLER_0_11_57
*159 FILLER_0_11_69
*160 FILLER_0_11_81
*161 FILLER_0_11_93
*162 FILLER_0_12_109
*163 FILLER_0_12_121
*164 FILLER_0_12_133
*165 FILLER_0_12_139
*166 FILLER_0_12_141
*167 FILLER_0_12_15
*168 FILLER_0_12_153
*169 FILLER_0_12_165
*170 FILLER_0_12_177
*171 FILLER_0_12_189
*172 FILLER_0_12_195
*173 FILLER_0_12_197
*174 FILLER_0_12_209
*175 FILLER_0_12_221
*176 FILLER_0_12_233
*177 FILLER_0_12_245
*178 FILLER_0_12_251
*179 FILLER_0_12_253
*180 FILLER_0_12_265
*181 FILLER_0_12_27
*182 FILLER_0_12_277
*183 FILLER_0_12_289
*184 FILLER_0_12_29
*185 FILLER_0_12_3
*186 FILLER_0_12_301
*187 FILLER_0_12_307
*188 FILLER_0_12_309
*189 FILLER_0_12_321
*190 FILLER_0_12_333
*191 FILLER_0_12_345
*192 FILLER_0_12_41
*193 FILLER_0_12_53
*194 FILLER_0_12_65
*195 FILLER_0_12_77
*196 FILLER_0_12_83
*197 FILLER_0_12_85
*198 FILLER_0_12_97
*199 FILLER_0_13_105
*200 FILLER_0_13_111
*201 FILLER_0_13_113
*202 FILLER_0_13_125
*203 FILLER_0_13_137
*204 FILLER_0_13_149
*205 FILLER_0_13_15
*206 FILLER_0_13_161
*207 FILLER_0_13_167
*208 FILLER_0_13_169
*209 FILLER_0_13_181
*210 FILLER_0_13_193
*211 FILLER_0_13_205
*212 FILLER_0_13_217
*213 FILLER_0_13_223
*214 FILLER_0_13_225
*215 FILLER_0_13_237
*216 FILLER_0_13_249
*217 FILLER_0_13_261
*218 FILLER_0_13_27
*219 FILLER_0_13_273
*220 FILLER_0_13_279
*221 FILLER_0_13_281
*222 FILLER_0_13_293
*223 FILLER_0_13_3
*224 FILLER_0_13_305
*225 FILLER_0_13_317
*226 FILLER_0_13_329
*227 FILLER_0_13_335
*228 FILLER_0_13_337
*229 FILLER_0_13_349
*230 FILLER_0_13_39
*231 FILLER_0_13_51
*232 FILLER_0_13_55
*233 FILLER_0_13_57
*234 FILLER_0_13_69
*235 FILLER_0_13_81
*236 FILLER_0_13_93
*237 FILLER_0_14_109
*238 FILLER_0_14_121
*239 FILLER_0_14_133
*240 FILLER_0_14_139
*241 FILLER_0_14_141
*242 FILLER_0_14_15
*243 FILLER_0_14_153
*244 FILLER_0_14_165
*245 FILLER_0_14_177
*246 FILLER_0_14_189
*247 FILLER_0_14_195
*248 FILLER_0_14_197
*249 FILLER_0_14_209
*250 FILLER_0_14_221
*251 FILLER_0_14_233
*252 FILLER_0_14_245
*253 FILLER_0_14_251
*254 FILLER_0_14_253
*255 FILLER_0_14_265
*256 FILLER_0_14_27
*257 FILLER_0_14_277
*258 FILLER_0_14_289
*259 FILLER_0_14_29
*260 FILLER_0_14_3
*261 FILLER_0_14_301
*262 FILLER_0_14_307
*263 FILLER_0_14_309
*264 FILLER_0_14_321
*265 FILLER_0_14_333
*266 FILLER_0_14_345
*267 FILLER_0_14_41
*268 FILLER_0_14_53
*269 FILLER_0_14_65
*270 FILLER_0_14_77
*271 FILLER_0_14_83
*272 FILLER_0_14_85
*273 FILLER_0_14_97
*274 FILLER_0_15_105
*275 FILLER_0_15_111
*276 FILLER_0_15_113
*277 FILLER_0_15_125
*278 FILLER_0_15_137
*279 FILLER_0_15_149
*280 FILLER_0_15_15
*281 FILLER_0_15_161
*282 FILLER_0_15_167
*283 FILLER_0_15_169
*284 FILLER_0_15_181
*285 FILLER_0_15_193
*286 FILLER_0_15_205
*287 FILLER_0_15_217
*288 FILLER_0_15_223
*289 FILLER_0_15_225
*290 FILLER_0_15_237
*291 FILLER_0_15_249
*292 FILLER_0_15_261
*293 FILLER_0_15_27
*294 FILLER_0_15_273
*295 FILLER_0_15_279
*296 FILLER_0_15_281
*297 FILLER_0_15_293
*298 FILLER_0_15_3
*299 FILLER_0_15_305
*300 FILLER_0_15_317
*301 FILLER_0_15_329
*302 FILLER_0_15_335
*303 FILLER_0_15_337
*304 FILLER_0_15_349
*305 FILLER_0_15_39
*306 FILLER_0_15_51
*307 FILLER_0_15_55
*308 FILLER_0_15_57
*309 FILLER_0_15_69
*310 FILLER_0_15_81
*311 FILLER_0_15_93
*312 FILLER_0_16_109
*313 FILLER_0_16_121
*314 FILLER_0_16_133
*315 FILLER_0_16_139
*316 FILLER_0_16_141
*317 FILLER_0_16_15
*318 FILLER_0_16_153
*319 FILLER_0_16_165
*320 FILLER_0_16_177
*321 FILLER_0_16_189
*322 FILLER_0_16_195
*323 FILLER_0_16_197
*324 FILLER_0_16_209
*325 FILLER_0_16_221
*326 FILLER_0_16_233
*327 FILLER_0_16_245
*328 FILLER_0_16_251
*329 FILLER_0_16_253
*330 FILLER_0_16_265
*331 FILLER_0_16_27
*332 FILLER_0_16_277
*333 FILLER_0_16_289
*334 FILLER_0_16_29
*335 FILLER_0_16_3
*336 FILLER_0_16_301
*337 FILLER_0_16_307
*338 FILLER_0_16_309
*339 FILLER_0_16_321
*340 FILLER_0_16_333
*341 FILLER_0_16_345
*342 FILLER_0_16_41
*343 FILLER_0_16_53
*344 FILLER_0_16_65
*345 FILLER_0_16_77
*346 FILLER_0_16_83
*347 FILLER_0_16_85
*348 FILLER_0_16_97
*349 FILLER_0_17_105
*350 FILLER_0_17_111
*351 FILLER_0_17_113
*352 FILLER_0_17_125
*353 FILLER_0_17_137
*354 FILLER_0_17_149
*355 FILLER_0_17_15
*356 FILLER_0_17_161
*357 FILLER_0_17_167
*358 FILLER_0_17_169
*359 FILLER_0_17_181
*360 FILLER_0_17_193
*361 FILLER_0_17_205
*362 FILLER_0_17_217
*363 FILLER_0_17_223
*364 FILLER_0_17_225
*365 FILLER_0_17_237
*366 FILLER_0_17_249
*367 FILLER_0_17_261
*368 FILLER_0_17_27
*369 FILLER_0_17_273
*370 FILLER_0_17_279
*371 FILLER_0_17_281
*372 FILLER_0_17_293
*373 FILLER_0_17_3
*374 FILLER_0_17_305
*375 FILLER_0_17_317
*376 FILLER_0_17_329
*377 FILLER_0_17_335
*378 FILLER_0_17_337
*379 FILLER_0_17_349
*380 FILLER_0_17_39
*381 FILLER_0_17_51
*382 FILLER_0_17_55
*383 FILLER_0_17_57
*384 FILLER_0_17_69
*385 FILLER_0_17_81
*386 FILLER_0_17_93
*387 FILLER_0_18_109
*388 FILLER_0_18_121
*389 FILLER_0_18_133
*390 FILLER_0_18_139
*391 FILLER_0_18_141
*392 FILLER_0_18_15
*393 FILLER_0_18_153
*394 FILLER_0_18_165
*395 FILLER_0_18_177
*396 FILLER_0_18_189
*397 FILLER_0_18_195
*398 FILLER_0_18_197
*399 FILLER_0_18_209
*400 FILLER_0_18_221
*401 FILLER_0_18_233
*402 FILLER_0_18_245
*403 FILLER_0_18_251
*404 FILLER_0_18_253
*405 FILLER_0_18_265
*406 FILLER_0_18_27
*407 FILLER_0_18_277
*408 FILLER_0_18_289
*409 FILLER_0_18_29
*410 FILLER_0_18_3
*411 FILLER_0_18_301
*412 FILLER_0_18_307
*413 FILLER_0_18_309
*414 FILLER_0_18_321
*415 FILLER_0_18_333
*416 FILLER_0_18_345
*417 FILLER_0_18_41
*418 FILLER_0_18_53
*419 FILLER_0_18_65
*420 FILLER_0_18_77
*421 FILLER_0_18_83
*422 FILLER_0_18_85
*423 FILLER_0_18_97
*424 FILLER_0_19_105
*425 FILLER_0_19_111
*426 FILLER_0_19_113
*427 FILLER_0_19_125
*428 FILLER_0_19_137
*429 FILLER_0_19_149
*430 FILLER_0_19_15
*431 FILLER_0_19_161
*432 FILLER_0_19_167
*433 FILLER_0_19_169
*434 FILLER_0_19_181
*435 FILLER_0_19_193
*436 FILLER_0_19_205
*437 FILLER_0_19_217
*438 FILLER_0_19_223
*439 FILLER_0_19_225
*440 FILLER_0_19_237
*441 FILLER_0_19_249
*442 FILLER_0_19_261
*443 FILLER_0_19_27
*444 FILLER_0_19_273
*445 FILLER_0_19_279
*446 FILLER_0_19_281
*447 FILLER_0_19_293
*448 FILLER_0_19_3
*449 FILLER_0_19_305
*450 FILLER_0_19_317
*451 FILLER_0_19_329
*452 FILLER_0_19_335
*453 FILLER_0_19_337
*454 FILLER_0_19_349
*455 FILLER_0_19_39
*456 FILLER_0_19_51
*457 FILLER_0_19_55
*458 FILLER_0_19_57
*459 FILLER_0_19_69
*460 FILLER_0_19_81
*461 FILLER_0_19_93
*462 FILLER_0_1_105
*463 FILLER_0_1_111
*464 FILLER_0_1_113
*465 FILLER_0_1_125
*466 FILLER_0_1_137
*467 FILLER_0_1_149
*468 FILLER_0_1_15
*469 FILLER_0_1_161
*470 FILLER_0_1_167
*471 FILLER_0_1_169
*472 FILLER_0_1_181
*473 FILLER_0_1_193
*474 FILLER_0_1_205
*475 FILLER_0_1_217
*476 FILLER_0_1_223
*477 FILLER_0_1_225
*478 FILLER_0_1_237
*479 FILLER_0_1_249
*480 FILLER_0_1_261
*481 FILLER_0_1_27
*482 FILLER_0_1_273
*483 FILLER_0_1_279
*484 FILLER_0_1_281
*485 FILLER_0_1_293
*486 FILLER_0_1_3
*487 FILLER_0_1_305
*488 FILLER_0_1_317
*489 FILLER_0_1_329
*490 FILLER_0_1_335
*491 FILLER_0_1_337
*492 FILLER_0_1_349
*493 FILLER_0_1_39
*494 FILLER_0_1_51
*495 FILLER_0_1_55
*496 FILLER_0_1_57
*497 FILLER_0_1_69
*498 FILLER_0_1_81
*499 FILLER_0_1_93
*500 FILLER_0_20_109
*501 FILLER_0_20_121
*502 FILLER_0_20_133
*503 FILLER_0_20_139
*504 FILLER_0_20_141
*505 FILLER_0_20_15
*506 FILLER_0_20_153
*507 FILLER_0_20_165
*508 FILLER_0_20_177
*509 FILLER_0_20_189
*510 FILLER_0_20_195
*511 FILLER_0_20_197
*512 FILLER_0_20_209
*513 FILLER_0_20_221
*514 FILLER_0_20_233
*515 FILLER_0_20_245
*516 FILLER_0_20_251
*517 FILLER_0_20_253
*518 FILLER_0_20_265
*519 FILLER_0_20_27
*520 FILLER_0_20_277
*521 FILLER_0_20_289
*522 FILLER_0_20_29
*523 FILLER_0_20_3
*524 FILLER_0_20_301
*525 FILLER_0_20_307
*526 FILLER_0_20_309
*527 FILLER_0_20_321
*528 FILLER_0_20_333
*529 FILLER_0_20_345
*530 FILLER_0_20_41
*531 FILLER_0_20_53
*532 FILLER_0_20_65
*533 FILLER_0_20_77
*534 FILLER_0_20_83
*535 FILLER_0_20_85
*536 FILLER_0_20_97
*537 FILLER_0_21_105
*538 FILLER_0_21_111
*539 FILLER_0_21_113
*540 FILLER_0_21_125
*541 FILLER_0_21_137
*542 FILLER_0_21_149
*543 FILLER_0_21_15
*544 FILLER_0_21_161
*545 FILLER_0_21_167
*546 FILLER_0_21_169
*547 FILLER_0_21_181
*548 FILLER_0_21_193
*549 FILLER_0_21_205
*550 FILLER_0_21_217
*551 FILLER_0_21_223
*552 FILLER_0_21_225
*553 FILLER_0_21_237
*554 FILLER_0_21_249
*555 FILLER_0_21_261
*556 FILLER_0_21_27
*557 FILLER_0_21_273
*558 FILLER_0_21_279
*559 FILLER_0_21_281
*560 FILLER_0_21_293
*561 FILLER_0_21_3
*562 FILLER_0_21_305
*563 FILLER_0_21_317
*564 FILLER_0_21_329
*565 FILLER_0_21_335
*566 FILLER_0_21_337
*567 FILLER_0_21_349
*568 FILLER_0_21_39
*569 FILLER_0_21_51
*570 FILLER_0_21_55
*571 FILLER_0_21_57
*572 FILLER_0_21_69
*573 FILLER_0_21_81
*574 FILLER_0_21_93
*575 FILLER_0_22_109
*576 FILLER_0_22_121
*577 FILLER_0_22_133
*578 FILLER_0_22_139
*579 FILLER_0_22_141
*580 FILLER_0_22_15
*581 FILLER_0_22_153
*582 FILLER_0_22_165
*583 FILLER_0_22_177
*584 FILLER_0_22_189
*585 FILLER_0_22_195
*586 FILLER_0_22_197
*587 FILLER_0_22_209
*588 FILLER_0_22_221
*589 FILLER_0_22_233
*590 FILLER_0_22_245
*591 FILLER_0_22_251
*592 FILLER_0_22_253
*593 FILLER_0_22_265
*594 FILLER_0_22_27
*595 FILLER_0_22_277
*596 FILLER_0_22_289
*597 FILLER_0_22_29
*598 FILLER_0_22_3
*599 FILLER_0_22_301
*600 FILLER_0_22_307
*601 FILLER_0_22_309
*602 FILLER_0_22_321
*603 FILLER_0_22_333
*604 FILLER_0_22_345
*605 FILLER_0_22_41
*606 FILLER_0_22_53
*607 FILLER_0_22_65
*608 FILLER_0_22_77
*609 FILLER_0_22_83
*610 FILLER_0_22_85
*611 FILLER_0_22_97
*612 FILLER_0_23_105
*613 FILLER_0_23_111
*614 FILLER_0_23_113
*615 FILLER_0_23_125
*616 FILLER_0_23_137
*617 FILLER_0_23_149
*618 FILLER_0_23_15
*619 FILLER_0_23_161
*620 FILLER_0_23_167
*621 FILLER_0_23_169
*622 FILLER_0_23_181
*623 FILLER_0_23_193
*624 FILLER_0_23_205
*625 FILLER_0_23_217
*626 FILLER_0_23_223
*627 FILLER_0_23_225
*628 FILLER_0_23_237
*629 FILLER_0_23_249
*630 FILLER_0_23_261
*631 FILLER_0_23_27
*632 FILLER_0_23_273
*633 FILLER_0_23_279
*634 FILLER_0_23_281
*635 FILLER_0_23_293
*636 FILLER_0_23_3
*637 FILLER_0_23_305
*638 FILLER_0_23_317
*639 FILLER_0_23_329
*640 FILLER_0_23_335
*641 FILLER_0_23_337
*642 FILLER_0_23_349
*643 FILLER_0_23_39
*644 FILLER_0_23_51
*645 FILLER_0_23_55
*646 FILLER_0_23_57
*647 FILLER_0_23_69
*648 FILLER_0_23_81
*649 FILLER_0_23_93
*650 FILLER_0_24_109
*651 FILLER_0_24_121
*652 FILLER_0_24_133
*653 FILLER_0_24_139
*654 FILLER_0_24_141
*655 FILLER_0_24_15
*656 FILLER_0_24_153
*657 FILLER_0_24_165
*658 FILLER_0_24_177
*659 FILLER_0_24_189
*660 FILLER_0_24_195
*661 FILLER_0_24_197
*662 FILLER_0_24_209
*663 FILLER_0_24_221
*664 FILLER_0_24_233
*665 FILLER_0_24_245
*666 FILLER_0_24_251
*667 FILLER_0_24_253
*668 FILLER_0_24_265
*669 FILLER_0_24_27
*670 FILLER_0_24_277
*671 FILLER_0_24_289
*672 FILLER_0_24_29
*673 FILLER_0_24_3
*674 FILLER_0_24_301
*675 FILLER_0_24_307
*676 FILLER_0_24_309
*677 FILLER_0_24_321
*678 FILLER_0_24_333
*679 FILLER_0_24_345
*680 FILLER_0_24_41
*681 FILLER_0_24_53
*682 FILLER_0_24_65
*683 FILLER_0_24_77
*684 FILLER_0_24_83
*685 FILLER_0_24_85
*686 FILLER_0_24_97
*687 FILLER_0_25_105
*688 FILLER_0_25_111
*689 FILLER_0_25_113
*690 FILLER_0_25_125
*691 FILLER_0_25_137
*692 FILLER_0_25_149
*693 FILLER_0_25_15
*694 FILLER_0_25_161
*695 FILLER_0_25_167
*696 FILLER_0_25_169
*697 FILLER_0_25_181
*698 FILLER_0_25_193
*699 FILLER_0_25_205
*700 FILLER_0_25_217
*701 FILLER_0_25_223
*702 FILLER_0_25_225
*703 FILLER_0_25_237
*704 FILLER_0_25_249
*705 FILLER_0_25_261
*706 FILLER_0_25_27
*707 FILLER_0_25_273
*708 FILLER_0_25_279
*709 FILLER_0_25_281
*710 FILLER_0_25_293
*711 FILLER_0_25_3
*712 FILLER_0_25_305
*713 FILLER_0_25_317
*714 FILLER_0_25_329
*715 FILLER_0_25_335
*716 FILLER_0_25_337
*717 FILLER_0_25_349
*718 FILLER_0_25_39
*719 FILLER_0_25_51
*720 FILLER_0_25_55
*721 FILLER_0_25_57
*722 FILLER_0_25_69
*723 FILLER_0_25_81
*724 FILLER_0_25_93
*725 FILLER_0_26_109
*726 FILLER_0_26_121
*727 FILLER_0_26_133
*728 FILLER_0_26_139
*729 FILLER_0_26_141
*730 FILLER_0_26_15
*731 FILLER_0_26_153
*732 FILLER_0_26_165
*733 FILLER_0_26_177
*734 FILLER_0_26_189
*735 FILLER_0_26_195
*736 FILLER_0_26_197
*737 FILLER_0_26_209
*738 FILLER_0_26_221
*739 FILLER_0_26_233
*740 FILLER_0_26_245
*741 FILLER_0_26_251
*742 FILLER_0_26_253
*743 FILLER_0_26_265
*744 FILLER_0_26_27
*745 FILLER_0_26_277
*746 FILLER_0_26_289
*747 FILLER_0_26_29
*748 FILLER_0_26_3
*749 FILLER_0_26_301
*750 FILLER_0_26_307
*751 FILLER_0_26_309
*752 FILLER_0_26_321
*753 FILLER_0_26_333
*754 FILLER_0_26_345
*755 FILLER_0_26_41
*756 FILLER_0_26_53
*757 FILLER_0_26_65
*758 FILLER_0_26_77
*759 FILLER_0_26_83
*760 FILLER_0_26_85
*761 FILLER_0_26_97
*762 FILLER_0_27_105
*763 FILLER_0_27_111
*764 FILLER_0_27_113
*765 FILLER_0_27_125
*766 FILLER_0_27_137
*767 FILLER_0_27_149
*768 FILLER_0_27_15
*769 FILLER_0_27_161
*770 FILLER_0_27_167
*771 FILLER_0_27_169
*772 FILLER_0_27_181
*773 FILLER_0_27_193
*774 FILLER_0_27_205
*775 FILLER_0_27_217
*776 FILLER_0_27_223
*777 FILLER_0_27_225
*778 FILLER_0_27_237
*779 FILLER_0_27_249
*780 FILLER_0_27_261
*781 FILLER_0_27_27
*782 FILLER_0_27_273
*783 FILLER_0_27_279
*784 FILLER_0_27_281
*785 FILLER_0_27_293
*786 FILLER_0_27_3
*787 FILLER_0_27_305
*788 FILLER_0_27_317
*789 FILLER_0_27_329
*790 FILLER_0_27_335
*791 FILLER_0_27_337
*792 FILLER_0_27_349
*793 FILLER_0_27_39
*794 FILLER_0_27_51
*795 FILLER_0_27_55
*796 FILLER_0_27_57
*797 FILLER_0_27_69
*798 FILLER_0_27_81
*799 FILLER_0_27_93
*800 FILLER_0_28_109
*801 FILLER_0_28_121
*802 FILLER_0_28_133
*803 FILLER_0_28_139
*804 FILLER_0_28_141
*805 FILLER_0_28_15
*806 FILLER_0_28_153
*807 FILLER_0_28_165
*808 FILLER_0_28_177
*809 FILLER_0_28_189
*810 FILLER_0_28_195
*811 FILLER_0_28_197
*812 FILLER_0_28_209
*813 FILLER_0_28_221
*814 FILLER_0_28_233
*815 FILLER_0_28_245
*816 FILLER_0_28_251
*817 FILLER_0_28_253
*818 FILLER_0_28_265
*819 FILLER_0_28_27
*820 FILLER_0_28_277
*821 FILLER_0_28_289
*822 FILLER_0_28_29
*823 FILLER_0_28_3
*824 FILLER_0_28_301
*825 FILLER_0_28_307
*826 FILLER_0_28_309
*827 FILLER_0_28_321
*828 FILLER_0_28_333
*829 FILLER_0_28_345
*830 FILLER_0_28_41
*831 FILLER_0_28_53
*832 FILLER_0_28_65
*833 FILLER_0_28_77
*834 FILLER_0_28_83
*835 FILLER_0_28_85
*836 FILLER_0_28_97
*837 FILLER_0_29_105
*838 FILLER_0_29_111
*839 FILLER_0_29_113
*840 FILLER_0_29_125
*841 FILLER_0_29_137
*842 FILLER_0_29_149
*843 FILLER_0_29_15
*844 FILLER_0_29_161
*845 FILLER_0_29_167
*846 FILLER_0_29_169
*847 FILLER_0_29_181
*848 FILLER_0_29_193
*849 FILLER_0_29_205
*850 FILLER_0_29_217
*851 FILLER_0_29_223
*852 FILLER_0_29_225
*853 FILLER_0_29_237
*854 FILLER_0_29_249
*855 FILLER_0_29_261
*856 FILLER_0_29_27
*857 FILLER_0_29_273
*858 FILLER_0_29_279
*859 FILLER_0_29_281
*860 FILLER_0_29_293
*861 FILLER_0_29_3
*862 FILLER_0_29_305
*863 FILLER_0_29_317
*864 FILLER_0_29_329
*865 FILLER_0_29_335
*866 FILLER_0_29_337
*867 FILLER_0_29_349
*868 FILLER_0_29_39
*869 FILLER_0_29_51
*870 FILLER_0_29_55
*871 FILLER_0_29_57
*872 FILLER_0_29_69
*873 FILLER_0_29_81
*874 FILLER_0_29_93
*875 FILLER_0_2_109
*876 FILLER_0_2_121
*877 FILLER_0_2_133
*878 FILLER_0_2_139
*879 FILLER_0_2_141
*880 FILLER_0_2_15
*881 FILLER_0_2_153
*882 FILLER_0_2_165
*883 FILLER_0_2_177
*884 FILLER_0_2_189
*885 FILLER_0_2_195
*886 FILLER_0_2_197
*887 FILLER_0_2_209
*888 FILLER_0_2_221
*889 FILLER_0_2_233
*890 FILLER_0_2_245
*891 FILLER_0_2_251
*892 FILLER_0_2_253
*893 FILLER_0_2_265
*894 FILLER_0_2_27
*895 FILLER_0_2_277
*896 FILLER_0_2_289
*897 FILLER_0_2_29
*898 FILLER_0_2_3
*899 FILLER_0_2_301
*900 FILLER_0_2_307
*901 FILLER_0_2_309
*902 FILLER_0_2_321
*903 FILLER_0_2_333
*904 FILLER_0_2_345
*905 FILLER_0_2_41
*906 FILLER_0_2_53
*907 FILLER_0_2_65
*908 FILLER_0_2_77
*909 FILLER_0_2_83
*910 FILLER_0_2_85
*911 FILLER_0_2_97
*912 FILLER_0_30_109
*913 FILLER_0_30_121
*914 FILLER_0_30_133
*915 FILLER_0_30_139
*916 FILLER_0_30_141
*917 FILLER_0_30_15
*918 FILLER_0_30_153
*919 FILLER_0_30_165
*920 FILLER_0_30_177
*921 FILLER_0_30_189
*922 FILLER_0_30_195
*923 FILLER_0_30_197
*924 FILLER_0_30_209
*925 FILLER_0_30_221
*926 FILLER_0_30_233
*927 FILLER_0_30_245
*928 FILLER_0_30_251
*929 FILLER_0_30_253
*930 FILLER_0_30_265
*931 FILLER_0_30_27
*932 FILLER_0_30_277
*933 FILLER_0_30_289
*934 FILLER_0_30_29
*935 FILLER_0_30_3
*936 FILLER_0_30_301
*937 FILLER_0_30_307
*938 FILLER_0_30_309
*939 FILLER_0_30_321
*940 FILLER_0_30_333
*941 FILLER_0_30_345
*942 FILLER_0_30_41
*943 FILLER_0_30_53
*944 FILLER_0_30_65
*945 FILLER_0_30_77
*946 FILLER_0_30_83
*947 FILLER_0_30_85
*948 FILLER_0_30_97
*949 FILLER_0_31_105
*950 FILLER_0_31_111
*951 FILLER_0_31_113
*952 FILLER_0_31_125
*953 FILLER_0_31_137
*954 FILLER_0_31_149
*955 FILLER_0_31_15
*956 FILLER_0_31_161
*957 FILLER_0_31_167
*958 FILLER_0_31_169
*959 FILLER_0_31_181
*960 FILLER_0_31_193
*961 FILLER_0_31_205
*962 FILLER_0_31_217
*963 FILLER_0_31_223
*964 FILLER_0_31_225
*965 FILLER_0_31_237
*966 FILLER_0_31_249
*967 FILLER_0_31_261
*968 FILLER_0_31_27
*969 FILLER_0_31_273
*970 FILLER_0_31_279
*971 FILLER_0_31_281
*972 FILLER_0_31_293
*973 FILLER_0_31_3
*974 FILLER_0_31_305
*975 FILLER_0_31_317
*976 FILLER_0_31_329
*977 FILLER_0_31_335
*978 FILLER_0_31_337
*979 FILLER_0_31_349
*980 FILLER_0_31_39
*981 FILLER_0_31_51
*982 FILLER_0_31_55
*983 FILLER_0_31_57
*984 FILLER_0_31_69
*985 FILLER_0_31_81
*986 FILLER_0_31_93
*987 FILLER_0_32_109
*988 FILLER_0_32_121
*989 FILLER_0_32_133
*990 FILLER_0_32_139
*991 FILLER_0_32_141
*992 FILLER_0_32_15
*993 FILLER_0_32_153
*994 FILLER_0_32_165
*995 FILLER_0_32_177
*996 FILLER_0_32_189
*997 FILLER_0_32_195
*998 FILLER_0_32_197
*999 FILLER_0_32_209
*1000 FILLER_0_32_221
*1001 FILLER_0_32_233
*1002 FILLER_0_32_245
*1003 FILLER_0_32_251
*1004 FILLER_0_32_253
*1005 FILLER_0_32_265
*1006 FILLER_0_32_27
*1007 FILLER_0_32_277
*1008 FILLER_0_32_289
*1009 FILLER_0_32_29
*1010 FILLER_0_32_3
*1011 FILLER_0_32_301
*1012 FILLER_0_32_307
*1013 FILLER_0_32_309
*1014 FILLER_0_32_321
*1015 FILLER_0_32_333
*1016 FILLER_0_32_345
*1017 FILLER_0_32_41
*1018 FILLER_0_32_53
*1019 FILLER_0_32_65
*1020 FILLER_0_32_77
*1021 FILLER_0_32_83
*1022 FILLER_0_32_85
*1023 FILLER_0_32_97
*1024 FILLER_0_33_105
*1025 FILLER_0_33_111
*1026 FILLER_0_33_113
*1027 FILLER_0_33_125
*1028 FILLER_0_33_137
*1029 FILLER_0_33_149
*1030 FILLER_0_33_15
*1031 FILLER_0_33_161
*1032 FILLER_0_33_167
*1033 FILLER_0_33_169
*1034 FILLER_0_33_181
*1035 FILLER_0_33_193
*1036 FILLER_0_33_205
*1037 FILLER_0_33_217
*1038 FILLER_0_33_223
*1039 FILLER_0_33_225
*1040 FILLER_0_33_237
*1041 FILLER_0_33_249
*1042 FILLER_0_33_261
*1043 FILLER_0_33_27
*1044 FILLER_0_33_273
*1045 FILLER_0_33_279
*1046 FILLER_0_33_281
*1047 FILLER_0_33_293
*1048 FILLER_0_33_3
*1049 FILLER_0_33_305
*1050 FILLER_0_33_317
*1051 FILLER_0_33_329
*1052 FILLER_0_33_335
*1053 FILLER_0_33_337
*1054 FILLER_0_33_349
*1055 FILLER_0_33_39
*1056 FILLER_0_33_51
*1057 FILLER_0_33_55
*1058 FILLER_0_33_57
*1059 FILLER_0_33_69
*1060 FILLER_0_33_81
*1061 FILLER_0_33_93
*1062 FILLER_0_34_109
*1063 FILLER_0_34_121
*1064 FILLER_0_34_133
*1065 FILLER_0_34_139
*1066 FILLER_0_34_141
*1067 FILLER_0_34_15
*1068 FILLER_0_34_162
*1069 FILLER_0_34_174
*1070 FILLER_0_34_186
*1071 FILLER_0_34_194
*1072 FILLER_0_34_197
*1073 FILLER_0_34_221
*1074 FILLER_0_34_233
*1075 FILLER_0_34_245
*1076 FILLER_0_34_251
*1077 FILLER_0_34_253
*1078 FILLER_0_34_265
*1079 FILLER_0_34_27
*1080 FILLER_0_34_277
*1081 FILLER_0_34_289
*1082 FILLER_0_34_29
*1083 FILLER_0_34_3
*1084 FILLER_0_34_301
*1085 FILLER_0_34_307
*1086 FILLER_0_34_309
*1087 FILLER_0_34_321
*1088 FILLER_0_34_333
*1089 FILLER_0_34_345
*1090 FILLER_0_34_41
*1091 FILLER_0_34_53
*1092 FILLER_0_34_65
*1093 FILLER_0_34_77
*1094 FILLER_0_34_83
*1095 FILLER_0_34_85
*1096 FILLER_0_34_97
*1097 FILLER_0_35_105
*1098 FILLER_0_35_111
*1099 FILLER_0_35_113
*1100 FILLER_0_35_125
*1101 FILLER_0_35_137
*1102 FILLER_0_35_149
*1103 FILLER_0_35_15
*1104 FILLER_0_35_161
*1105 FILLER_0_35_167
*1106 FILLER_0_35_169
*1107 FILLER_0_35_181
*1108 FILLER_0_35_193
*1109 FILLER_0_35_205
*1110 FILLER_0_35_217
*1111 FILLER_0_35_223
*1112 FILLER_0_35_225
*1113 FILLER_0_35_237
*1114 FILLER_0_35_249
*1115 FILLER_0_35_261
*1116 FILLER_0_35_27
*1117 FILLER_0_35_273
*1118 FILLER_0_35_279
*1119 FILLER_0_35_281
*1120 FILLER_0_35_293
*1121 FILLER_0_35_3
*1122 FILLER_0_35_305
*1123 FILLER_0_35_317
*1124 FILLER_0_35_329
*1125 FILLER_0_35_335
*1126 FILLER_0_35_337
*1127 FILLER_0_35_349
*1128 FILLER_0_35_39
*1129 FILLER_0_35_51
*1130 FILLER_0_35_55
*1131 FILLER_0_35_57
*1132 FILLER_0_35_69
*1133 FILLER_0_35_81
*1134 FILLER_0_35_93
*1135 FILLER_0_36_109
*1136 FILLER_0_36_121
*1137 FILLER_0_36_133
*1138 FILLER_0_36_139
*1139 FILLER_0_36_141
*1140 FILLER_0_36_15
*1141 FILLER_0_36_153
*1142 FILLER_0_36_165
*1143 FILLER_0_36_177
*1144 FILLER_0_36_189
*1145 FILLER_0_36_195
*1146 FILLER_0_36_197
*1147 FILLER_0_36_209
*1148 FILLER_0_36_221
*1149 FILLER_0_36_233
*1150 FILLER_0_36_245
*1151 FILLER_0_36_251
*1152 FILLER_0_36_253
*1153 FILLER_0_36_265
*1154 FILLER_0_36_27
*1155 FILLER_0_36_277
*1156 FILLER_0_36_289
*1157 FILLER_0_36_29
*1158 FILLER_0_36_3
*1159 FILLER_0_36_301
*1160 FILLER_0_36_307
*1161 FILLER_0_36_309
*1162 FILLER_0_36_321
*1163 FILLER_0_36_333
*1164 FILLER_0_36_345
*1165 FILLER_0_36_41
*1166 FILLER_0_36_53
*1167 FILLER_0_36_65
*1168 FILLER_0_36_77
*1169 FILLER_0_36_83
*1170 FILLER_0_36_85
*1171 FILLER_0_36_97
*1172 FILLER_0_37_105
*1173 FILLER_0_37_111
*1174 FILLER_0_37_113
*1175 FILLER_0_37_125
*1176 FILLER_0_37_137
*1177 FILLER_0_37_149
*1178 FILLER_0_37_15
*1179 FILLER_0_37_161
*1180 FILLER_0_37_167
*1181 FILLER_0_37_169
*1182 FILLER_0_37_181
*1183 FILLER_0_37_204
*1184 FILLER_0_37_216
*1185 FILLER_0_37_225
*1186 FILLER_0_37_237
*1187 FILLER_0_37_249
*1188 FILLER_0_37_261
*1189 FILLER_0_37_27
*1190 FILLER_0_37_273
*1191 FILLER_0_37_279
*1192 FILLER_0_37_281
*1193 FILLER_0_37_293
*1194 FILLER_0_37_3
*1195 FILLER_0_37_305
*1196 FILLER_0_37_317
*1197 FILLER_0_37_329
*1198 FILLER_0_37_335
*1199 FILLER_0_37_337
*1200 FILLER_0_37_349
*1201 FILLER_0_37_39
*1202 FILLER_0_37_51
*1203 FILLER_0_37_55
*1204 FILLER_0_37_57
*1205 FILLER_0_37_69
*1206 FILLER_0_37_81
*1207 FILLER_0_37_93
*1208 FILLER_0_38_104
*1209 FILLER_0_38_110
*1210 FILLER_0_38_116
*1211 FILLER_0_38_122
*1212 FILLER_0_38_128
*1213 FILLER_0_38_134
*1214 FILLER_0_38_141
*1215 FILLER_0_38_146
*1216 FILLER_0_38_15
*1217 FILLER_0_38_152
*1218 FILLER_0_38_158
*1219 FILLER_0_38_169
*1220 FILLER_0_38_175
*1221 FILLER_0_38_180
*1222 FILLER_0_38_184
*1223 FILLER_0_38_192
*1224 FILLER_0_38_205
*1225 FILLER_0_38_217
*1226 FILLER_0_38_223
*1227 FILLER_0_38_225
*1228 FILLER_0_38_237
*1229 FILLER_0_38_249
*1230 FILLER_0_38_253
*1231 FILLER_0_38_265
*1232 FILLER_0_38_27
*1233 FILLER_0_38_277
*1234 FILLER_0_38_281
*1235 FILLER_0_38_29
*1236 FILLER_0_38_293
*1237 FILLER_0_38_3
*1238 FILLER_0_38_305
*1239 FILLER_0_38_309
*1240 FILLER_0_38_321
*1241 FILLER_0_38_333
*1242 FILLER_0_38_337
*1243 FILLER_0_38_349
*1244 FILLER_0_38_41
*1245 FILLER_0_38_53
*1246 FILLER_0_38_57
*1247 FILLER_0_38_68
*1248 FILLER_0_38_74
*1249 FILLER_0_38_80
*1250 FILLER_0_38_88
*1251 FILLER_0_38_92
*1252 FILLER_0_38_98
*1253 FILLER_0_3_105
*1254 FILLER_0_3_111
*1255 FILLER_0_3_113
*1256 FILLER_0_3_125
*1257 FILLER_0_3_137
*1258 FILLER_0_3_149
*1259 FILLER_0_3_15
*1260 FILLER_0_3_161
*1261 FILLER_0_3_167
*1262 FILLER_0_3_169
*1263 FILLER_0_3_181
*1264 FILLER_0_3_193
*1265 FILLER_0_3_205
*1266 FILLER_0_3_217
*1267 FILLER_0_3_223
*1268 FILLER_0_3_225
*1269 FILLER_0_3_237
*1270 FILLER_0_3_249
*1271 FILLER_0_3_261
*1272 FILLER_0_3_27
*1273 FILLER_0_3_273
*1274 FILLER_0_3_279
*1275 FILLER_0_3_281
*1276 FILLER_0_3_293
*1277 FILLER_0_3_3
*1278 FILLER_0_3_305
*1279 FILLER_0_3_317
*1280 FILLER_0_3_329
*1281 FILLER_0_3_335
*1282 FILLER_0_3_337
*1283 FILLER_0_3_349
*1284 FILLER_0_3_39
*1285 FILLER_0_3_51
*1286 FILLER_0_3_55
*1287 FILLER_0_3_57
*1288 FILLER_0_3_69
*1289 FILLER_0_3_81
*1290 FILLER_0_3_93
*1291 FILLER_0_4_109
*1292 FILLER_0_4_121
*1293 FILLER_0_4_133
*1294 FILLER_0_4_139
*1295 FILLER_0_4_141
*1296 FILLER_0_4_15
*1297 FILLER_0_4_153
*1298 FILLER_0_4_165
*1299 FILLER_0_4_177
*1300 FILLER_0_4_189
*1301 FILLER_0_4_195
*1302 FILLER_0_4_197
*1303 FILLER_0_4_209
*1304 FILLER_0_4_221
*1305 FILLER_0_4_233
*1306 FILLER_0_4_245
*1307 FILLER_0_4_251
*1308 FILLER_0_4_253
*1309 FILLER_0_4_265
*1310 FILLER_0_4_27
*1311 FILLER_0_4_277
*1312 FILLER_0_4_289
*1313 FILLER_0_4_29
*1314 FILLER_0_4_3
*1315 FILLER_0_4_301
*1316 FILLER_0_4_307
*1317 FILLER_0_4_309
*1318 FILLER_0_4_321
*1319 FILLER_0_4_333
*1320 FILLER_0_4_345
*1321 FILLER_0_4_41
*1322 FILLER_0_4_53
*1323 FILLER_0_4_65
*1324 FILLER_0_4_77
*1325 FILLER_0_4_83
*1326 FILLER_0_4_85
*1327 FILLER_0_4_97
*1328 FILLER_0_5_105
*1329 FILLER_0_5_111
*1330 FILLER_0_5_113
*1331 FILLER_0_5_125
*1332 FILLER_0_5_137
*1333 FILLER_0_5_149
*1334 FILLER_0_5_15
*1335 FILLER_0_5_161
*1336 FILLER_0_5_167
*1337 FILLER_0_5_169
*1338 FILLER_0_5_181
*1339 FILLER_0_5_193
*1340 FILLER_0_5_205
*1341 FILLER_0_5_217
*1342 FILLER_0_5_223
*1343 FILLER_0_5_225
*1344 FILLER_0_5_237
*1345 FILLER_0_5_249
*1346 FILLER_0_5_261
*1347 FILLER_0_5_27
*1348 FILLER_0_5_273
*1349 FILLER_0_5_279
*1350 FILLER_0_5_281
*1351 FILLER_0_5_293
*1352 FILLER_0_5_3
*1353 FILLER_0_5_305
*1354 FILLER_0_5_317
*1355 FILLER_0_5_329
*1356 FILLER_0_5_335
*1357 FILLER_0_5_337
*1358 FILLER_0_5_349
*1359 FILLER_0_5_39
*1360 FILLER_0_5_51
*1361 FILLER_0_5_55
*1362 FILLER_0_5_57
*1363 FILLER_0_5_69
*1364 FILLER_0_5_81
*1365 FILLER_0_5_93
*1366 FILLER_0_6_109
*1367 FILLER_0_6_121
*1368 FILLER_0_6_133
*1369 FILLER_0_6_139
*1370 FILLER_0_6_141
*1371 FILLER_0_6_15
*1372 FILLER_0_6_153
*1373 FILLER_0_6_165
*1374 FILLER_0_6_177
*1375 FILLER_0_6_189
*1376 FILLER_0_6_195
*1377 FILLER_0_6_197
*1378 FILLER_0_6_209
*1379 FILLER_0_6_221
*1380 FILLER_0_6_233
*1381 FILLER_0_6_245
*1382 FILLER_0_6_251
*1383 FILLER_0_6_253
*1384 FILLER_0_6_265
*1385 FILLER_0_6_27
*1386 FILLER_0_6_277
*1387 FILLER_0_6_289
*1388 FILLER_0_6_29
*1389 FILLER_0_6_3
*1390 FILLER_0_6_301
*1391 FILLER_0_6_307
*1392 FILLER_0_6_309
*1393 FILLER_0_6_321
*1394 FILLER_0_6_333
*1395 FILLER_0_6_345
*1396 FILLER_0_6_41
*1397 FILLER_0_6_53
*1398 FILLER_0_6_65
*1399 FILLER_0_6_77
*1400 FILLER_0_6_83
*1401 FILLER_0_6_85
*1402 FILLER_0_6_97
*1403 FILLER_0_7_105
*1404 FILLER_0_7_111
*1405 FILLER_0_7_113
*1406 FILLER_0_7_125
*1407 FILLER_0_7_137
*1408 FILLER_0_7_149
*1409 FILLER_0_7_15
*1410 FILLER_0_7_161
*1411 FILLER_0_7_167
*1412 FILLER_0_7_169
*1413 FILLER_0_7_181
*1414 FILLER_0_7_193
*1415 FILLER_0_7_205
*1416 FILLER_0_7_217
*1417 FILLER_0_7_223
*1418 FILLER_0_7_225
*1419 FILLER_0_7_237
*1420 FILLER_0_7_249
*1421 FILLER_0_7_261
*1422 FILLER_0_7_27
*1423 FILLER_0_7_273
*1424 FILLER_0_7_279
*1425 FILLER_0_7_281
*1426 FILLER_0_7_293
*1427 FILLER_0_7_3
*1428 FILLER_0_7_305
*1429 FILLER_0_7_317
*1430 FILLER_0_7_329
*1431 FILLER_0_7_335
*1432 FILLER_0_7_337
*1433 FILLER_0_7_349
*1434 FILLER_0_7_39
*1435 FILLER_0_7_51
*1436 FILLER_0_7_55
*1437 FILLER_0_7_57
*1438 FILLER_0_7_69
*1439 FILLER_0_7_81
*1440 FILLER_0_7_93
*1441 FILLER_0_8_109
*1442 FILLER_0_8_121
*1443 FILLER_0_8_133
*1444 FILLER_0_8_139
*1445 FILLER_0_8_141
*1446 FILLER_0_8_15
*1447 FILLER_0_8_153
*1448 FILLER_0_8_165
*1449 FILLER_0_8_177
*1450 FILLER_0_8_189
*1451 FILLER_0_8_195