*SPEF "ieee 1481-1999"
*DESIGN "tt_um_rebel2_balanced_ternary_ALU"
*DATE "11:11:11 Fri 11 11, 1111"
*VENDOR "OpenRCX"
*PROGRAM "Parallel Extraction"
*VERSION "1.0"
*DESIGN_FLOW "NAME_SCOPE LOCAL" "PIN_CAP NONE"
*DIVIDER /
*DELIMITER :
*BUS_DELIMITER []
*T_UNIT 1 NS
*C_UNIT 1 PF
*R_UNIT 1 OHM
*L_UNIT 1 HENRY

*NAME_MAP
*3 clk
*4 ena
*5 rst_n
*6 ui_in[0]
*7 ui_in[1]
*8 ui_in[2]
*9 ui_in[3]
*10 ui_in[4]
*11 ui_in[5]
*12 ui_in[6]
*13 ui_in[7]
*14 uio_in[0]
*15 uio_in[1]
*16 uio_in[2]
*17 uio_in[3]
*18 uio_in[4]
*19 uio_in[5]
*20 uio_in[6]
*21 uio_in[7]
*22 net17
*23 net18
*24 net19
*25 net20
*26 net21
*27 net22
*28 net23
*29 net24
*30 net25
*31 net26
*32 net27
*33 net28
*34 net29
*35 net30
*36 net31
*37 net32
*38 uo_out[0]
*39 uo_out[1]
*40 uo_out[2]
*41 uo_out[3]
*42 uo_out[4]
*43 uo_out[5]
*44 uo_out[6]
*45 uo_out[7]
*46 _000_
*47 _001_
*48 _002_
*49 _003_
*50 _004_
*51 _005_
*52 _006_
*53 _007_
*54 _008_
*55 _009_
*56 _010_
*57 _011_
*58 _012_
*59 _013_
*60 _014_
*61 _015_
*62 _016_
*63 _017_
*64 _018_
*65 _019_
*66 _020_
*67 _021_
*68 _022_
*69 _023_
*70 _024_
*71 _025_
*72 _026_
*73 _027_
*74 _028_
*75 _029_
*76 _030_
*77 _031_
*78 _032_
*79 _033_
*80 _034_
*81 _035_
*82 _036_
*83 _037_
*84 _038_
*85 _039_
*86 _040_
*87 _041_
*88 _042_
*89 _043_
*90 _044_
*91 _045_
*92 _046_
*93 _047_
*94 _048_
*95 _049_
*96 _050_
*97 _051_
*98 _052_
*99 _053_
*100 _054_
*101 _055_
*102 _056_
*103 _057_
*104 _058_
*105 _059_
*106 _060_
*107 _061_
*108 _062_
*109 _063_
*110 _064_
*111 _065_
*112 _066_
*113 _067_
*114 _068_
*115 _069_
*116 _070_
*117 _071_
*118 _072_
*119 _073_
*120 _074_
*121 _075_
*122 _076_
*123 _077_
*124 _078_
*125 _079_
*126 _080_
*127 _081_
*128 _082_
*129 _083_
*130 _084_
*131 _085_
*132 _086_
*133 _087_
*134 _088_
*135 _089_
*136 _090_
*137 _091_
*138 _092_
*139 _093_
*140 _094_
*141 _095_
*142 _096_
*143 _097_
*144 _098_
*145 _099_
*146 _100_
*147 _101_
*148 _102_
*149 _103_
*150 _104_
*151 _105_
*152 _106_
*153 _107_
*154 _108_
*155 _109_
*156 _110_
*157 _111_
*158 _112_
*159 _113_
*160 _114_
*161 _115_
*162 _116_
*163 _117_
*164 _118_
*165 _119_
*166 _120_
*167 _121_
*168 _122_
*169 _123_
*170 _124_
*171 _125_
*172 _126_
*173 _127_
*174 _128_
*175 _129_
*176 _130_
*177 _131_
*178 _132_
*179 _133_
*180 _134_
*181 _135_
*182 _136_
*183 _137_
*184 _138_
*185 _139_
*186 _140_
*187 _141_
*188 _142_
*189 _143_
*190 _144_
*191 _145_
*192 _146_
*193 _147_
*194 _148_
*195 _149_
*196 _150_
*197 _151_
*198 _152_
*199 _153_
*200 _154_
*201 _155_
*202 _156_
*203 _157_
*204 _158_
*205 _159_
*206 _160_
*207 _161_
*208 _162_
*209 _163_
*210 _164_
*211 _165_
*212 _166_
*213 _167_
*214 _168_
*215 _169_
*216 _170_
*217 _171_
*218 _172_
*219 _173_
*220 _174_
*221 _175_
*222 _176_
*223 _177_
*224 _178_
*225 _179_
*226 _180_
*227 _181_
*228 _182_
*229 _183_
*230 _184_
*231 _185_
*232 _186_
*233 _187_
*234 _188_
*235 _189_
*236 _190_
*237 _191_
*238 _192_
*239 _193_
*240 _194_
*241 _195_
*242 _196_
*243 _197_
*244 _198_
*245 _199_
*246 _200_
*247 _201_
*248 _202_
*249 _203_
*250 _204_
*251 _205_
*252 _206_
*253 _207_
*254 _208_
*255 _209_
*256 net1
*257 net10
*258 net11
*259 net12
*260 net13
*261 net14
*262 net15
*263 net16
*264 net2
*265 net3
*266 net4
*267 net5
*268 net6
*269 net7
*270 net8
*271 net9
*272 FILLER_0_0_109
*273 FILLER_0_0_113
*274 FILLER_0_0_125
*275 FILLER_0_0_137
*276 FILLER_0_0_141
*277 FILLER_0_0_15
*278 FILLER_0_0_153
*279 FILLER_0_0_165
*280 FILLER_0_0_169
*281 FILLER_0_0_181
*282 FILLER_0_0_193
*283 FILLER_0_0_197
*284 FILLER_0_0_209
*285 FILLER_0_0_221
*286 FILLER_0_0_225
*287 FILLER_0_0_237
*288 FILLER_0_0_249
*289 FILLER_0_0_253
*290 FILLER_0_0_265
*291 FILLER_0_0_27
*292 FILLER_0_0_277
*293 FILLER_0_0_281
*294 FILLER_0_0_29
*295 FILLER_0_0_293
*296 FILLER_0_0_3
*297 FILLER_0_0_305
*298 FILLER_0_0_309
*299 FILLER_0_0_321
*300 FILLER_0_0_333
*301 FILLER_0_0_337
*302 FILLER_0_0_349
*303 FILLER_0_0_41
*304 FILLER_0_0_53
*305 FILLER_0_0_57
*306 FILLER_0_0_69
*307 FILLER_0_0_81
*308 FILLER_0_0_85
*309 FILLER_0_0_97
*310 FILLER_0_10_109
*311 FILLER_0_10_121
*312 FILLER_0_10_133
*313 FILLER_0_10_139
*314 FILLER_0_10_141
*315 FILLER_0_10_15
*316 FILLER_0_10_153
*317 FILLER_0_10_165
*318 FILLER_0_10_177
*319 FILLER_0_10_189
*320 FILLER_0_10_195
*321 FILLER_0_10_197
*322 FILLER_0_10_209
*323 FILLER_0_10_221
*324 FILLER_0_10_233
*325 FILLER_0_10_245
*326 FILLER_0_10_251
*327 FILLER_0_10_253
*328 FILLER_0_10_265
*329 FILLER_0_10_27
*330 FILLER_0_10_277
*331 FILLER_0_10_289
*332 FILLER_0_10_29
*333 FILLER_0_10_3
*334 FILLER_0_10_301
*335 FILLER_0_10_307
*336 FILLER_0_10_309
*337 FILLER_0_10_321
*338 FILLER_0_10_333
*339 FILLER_0_10_345
*340 FILLER_0_10_41
*341 FILLER_0_10_53
*342 FILLER_0_10_65
*343 FILLER_0_10_77
*344 FILLER_0_10_83
*345 FILLER_0_10_85
*346 FILLER_0_10_97
*347 FILLER_0_11_105
*348 FILLER_0_11_111
*349 FILLER_0_11_113
*350 FILLER_0_11_125
*351 FILLER_0_11_137
*352 FILLER_0_11_149
*353 FILLER_0_11_15
*354 FILLER_0_11_161
*355 FILLER_0_11_167
*356 FILLER_0_11_169
*357 FILLER_0_11_181
*358 FILLER_0_11_193
*359 FILLER_0_11_205
*360 FILLER_0_11_217
*361 FILLER_0_11_223
*362 FILLER_0_11_225
*363 FILLER_0_11_237
*364 FILLER_0_11_249
*365 FILLER_0_11_261
*366 FILLER_0_11_27
*367 FILLER_0_11_273
*368 FILLER_0_11_279
*369 FILLER_0_11_281
*370 FILLER_0_11_293
*371 FILLER_0_11_3
*372 FILLER_0_11_305
*373 FILLER_0_11_317
*374 FILLER_0_11_329
*375 FILLER_0_11_335
*376 FILLER_0_11_337
*377 FILLER_0_11_349
*378 FILLER_0_11_39
*379 FILLER_0_11_51
*380 FILLER_0_11_55
*381 FILLER_0_11_57
*382 FILLER_0_11_69
*383 FILLER_0_11_81
*384 FILLER_0_11_93
*385 FILLER_0_12_109
*386 FILLER_0_12_121
*387 FILLER_0_12_133
*388 FILLER_0_12_139
*389 FILLER_0_12_141
*390 FILLER_0_12_15
*391 FILLER_0_12_153
*392 FILLER_0_12_165
*393 FILLER_0_12_177
*394 FILLER_0_12_189
*395 FILLER_0_12_195
*396 FILLER_0_12_197
*397 FILLER_0_12_209
*398 FILLER_0_12_221
*399 FILLER_0_12_233
*400 FILLER_0_12_245
*401 FILLER_0_12_251
*402 FILLER_0_12_253
*403 FILLER_0_12_265
*404 FILLER_0_12_27
*405 FILLER_0_12_277
*406 FILLER_0_12_289
*407 FILLER_0_12_29
*408 FILLER_0_12_3
*409 FILLER_0_12_301
*410 FILLER_0_12_307
*411 FILLER_0_12_309
*412 FILLER_0_12_321
*413 FILLER_0_12_333
*414 FILLER_0_12_345
*415 FILLER_0_12_41
*416 FILLER_0_12_53
*417 FILLER_0_12_65
*418 FILLER_0_12_77
*419 FILLER_0_12_83
*420 FILLER_0_12_85
*421 FILLER_0_12_97
*422 FILLER_0_13_105
*423 FILLER_0_13_111
*424 FILLER_0_13_113
*425 FILLER_0_13_125
*426 FILLER_0_13_137
*427 FILLER_0_13_149
*428 FILLER_0_13_15
*429 FILLER_0_13_161
*430 FILLER_0_13_167
*431 FILLER_0_13_169
*432 FILLER_0_13_181
*433 FILLER_0_13_193
*434 FILLER_0_13_205
*435 FILLER_0_13_217
*436 FILLER_0_13_223
*437 FILLER_0_13_225
*438 FILLER_0_13_237
*439 FILLER_0_13_249
*440 FILLER_0_13_261
*441 FILLER_0_13_27
*442 FILLER_0_13_273
*443 FILLER_0_13_279
*444 FILLER_0_13_281
*445 FILLER_0_13_293
*446 FILLER_0_13_3
*447 FILLER_0_13_305
*448 FILLER_0_13_317
*449 FILLER_0_13_329
*450 FILLER_0_13_335
*451 FILLER_0_13_337
*452 FILLER_0_13_349
*453 FILLER_0_13_39
*454 FILLER_0_13_51
*455 FILLER_0_13_55
*456 FILLER_0_13_57
*457 FILLER_0_13_69
*458 FILLER_0_13_81
*459 FILLER_0_13_93
*460 FILLER_0_14_109
*461 FILLER_0_14_121
*462 FILLER_0_14_133
*463 FILLER_0_14_139
*464 FILLER_0_14_141
*465 FILLER_0_14_15
*466 FILLER_0_14_153
*467 FILLER_0_14_165
*468 FILLER_0_14_177
*469 FILLER_0_14_189
*470 FILLER_0_14_195
*471 FILLER_0_14_197
*472 FILLER_0_14_209
*473 FILLER_0_14_221
*474 FILLER_0_14_233
*475 FILLER_0_14_245
*476 FILLER_0_14_251
*477 FILLER_0_14_253
*478 FILLER_0_14_265
*479 FILLER_0_14_27
*480 FILLER_0_14_277
*481 FILLER_0_14_289
*482 FILLER_0_14_29
*483 FILLER_0_14_3
*484 FILLER_0_14_301
*485 FILLER_0_14_307
*486 FILLER_0_14_309
*487 FILLER_0_14_321
*488 FILLER_0_14_333
*489 FILLER_0_14_345
*490 FILLER_0_14_41
*491 FILLER_0_14_53
*492 FILLER_0_14_65
*493 FILLER_0_14_77
*494 FILLER_0_14_83
*495 FILLER_0_14_85
*496 FILLER_0_14_97
*497 FILLER_0_15_105
*498 FILLER_0_15_111
*499 FILLER_0_15_113
*500 FILLER_0_15_125
*501 FILLER_0_15_137
*502 FILLER_0_15_149
*503 FILLER_0_15_15
*504 FILLER_0_15_161
*505 FILLER_0_15_167
*506 FILLER_0_15_169
*507 FILLER_0_15_181
*508 FILLER_0_15_193
*509 FILLER_0_15_205
*510 FILLER_0_15_217
*511 FILLER_0_15_223
*512 FILLER_0_15_225
*513 FILLER_0_15_237
*514 FILLER_0_15_249
*515 FILLER_0_15_261
*516 FILLER_0_15_27
*517 FILLER_0_15_273
*518 FILLER_0_15_279
*519 FILLER_0_15_281
*520 FILLER_0_15_293
*521 FILLER_0_15_3
*522 FILLER_0_15_305
*523 FILLER_0_15_317
*524 FILLER_0_15_329
*525 FILLER_0_15_335
*526 FILLER_0_15_337
*527 FILLER_0_15_349
*528 FILLER_0_15_39
*529 FILLER_0_15_51
*530 FILLER_0_15_55
*531 FILLER_0_15_57
*532 FILLER_0_15_69
*533 FILLER_0_15_81
*534 FILLER_0_15_93
*535 FILLER_0_16_109
*536 FILLER_0_16_121
*537 FILLER_0_16_133
*538 FILLER_0_16_139
*539 FILLER_0_16_141
*540 FILLER_0_16_15
*541 FILLER_0_16_153
*542 FILLER_0_16_165
*543 FILLER_0_16_177
*544 FILLER_0_16_189
*545 FILLER_0_16_195
*546 FILLER_0_16_197
*547 FILLER_0_16_209
*548 FILLER_0_16_221
*549 FILLER_0_16_233
*550 FILLER_0_16_245
*551 FILLER_0_16_251
*552 FILLER_0_16_253
*553 FILLER_0_16_265
*554 FILLER_0_16_27
*555 FILLER_0_16_277
*556 FILLER_0_16_289
*557 FILLER_0_16_29
*558 FILLER_0_16_3
*559 FILLER_0_16_301
*560 FILLER_0_16_307
*561 FILLER_0_16_309
*562 FILLER_0_16_321
*563 FILLER_0_16_333
*564 FILLER_0_16_345
*565 FILLER_0_16_41
*566 FILLER_0_16_53
*567 FILLER_0_16_65
*568 FILLER_0_16_77
*569 FILLER_0_16_83
*570 FILLER_0_16_85
*571 FILLER_0_16_97
*572 FILLER_0_17_105
*573 FILLER_0_17_111
*574 FILLER_0_17_113
*575 FILLER_0_17_125
*576 FILLER_0_17_137
*577 FILLER_0_17_149
*578 FILLER_0_17_15
*579 FILLER_0_17_161
*580 FILLER_0_17_167
*581 FILLER_0_17_169
*582 FILLER_0_17_181
*583 FILLER_0_17_193
*584 FILLER_0_17_205
*585 FILLER_0_17_217
*586 FILLER_0_17_223
*587 FILLER_0_17_225
*588 FILLER_0_17_237
*589 FILLER_0_17_249
*590 FILLER_0_17_261
*591 FILLER_0_17_27
*592 FILLER_0_17_273
*593 FILLER_0_17_279
*594 FILLER_0_17_281
*595 FILLER_0_17_293
*596 FILLER_0_17_3
*597 FILLER_0_17_305
*598 FILLER_0_17_317
*599 FILLER_0_17_329
*600 FILLER_0_17_335
*601 FILLER_0_17_337
*602 FILLER_0_17_349
*603 FILLER_0_17_39
*604 FILLER_0_17_51
*605 FILLER_0_17_55
*606 FILLER_0_17_57
*607 FILLER_0_17_69
*608 FILLER_0_17_81
*609 FILLER_0_17_93
*610 FILLER_0_18_109
*611 FILLER_0_18_121
*612 FILLER_0_18_133
*613 FILLER_0_18_139
*614 FILLER_0_18_141
*615 FILLER_0_18_15
*616 FILLER_0_18_153
*617 FILLER_0_18_165
*618 FILLER_0_18_177
*619 FILLER_0_18_189
*620 FILLER_0_18_195
*621 FILLER_0_18_197
*622 FILLER_0_18_209
*623 FILLER_0_18_221
*624 FILLER_0_18_233
*625 FILLER_0_18_245
*626 FILLER_0_18_251
*627 FILLER_0_18_253
*628 FILLER_0_18_265
*629 FILLER_0_18_27
*630 FILLER_0_18_277
*631 FILLER_0_18_289
*632 FILLER_0_18_29
*633 FILLER_0_18_3
*634 FILLER_0_18_301
*635 FILLER_0_18_307
*636 FILLER_0_18_309
*637 FILLER_0_18_321
*638 FILLER_0_18_333
*639 FILLER_0_18_345
*640 FILLER_0_18_41
*641 FILLER_0_18_53
*642 FILLER_0_18_65
*643 FILLER_0_18_77
*644 FILLER_0_18_83
*645 FILLER_0_18_85
*646 FILLER_0_18_97
*647 FILLER_0_19_105
*648 FILLER_0_19_111
*649 FILLER_0_19_113
*650 FILLER_0_19_125
*651 FILLER_0_19_137
*652 FILLER_0_19_149
*653 FILLER_0_19_15
*654 FILLER_0_19_161
*655 FILLER_0_19_167
*656 FILLER_0_19_169
*657 FILLER_0_19_181
*658 FILLER_0_19_193
*659 FILLER_0_19_205
*660 FILLER_0_19_217
*661 FILLER_0_19_223
*662 FILLER_0_19_225
*663 FILLER_0_19_237
*664 FILLER_0_19_249
*665 FILLER_0_19_261
*666 FILLER_0_19_27
*667 FILLER_0_19_273
*668 FILLER_0_19_279
*669 FILLER_0_19_281
*670 FILLER_0_19_293
*671 FILLER_0_19_3
*672 FILLER_0_19_305
*673 FILLER_0_19_317
*674 FILLER_0_19_329
*675 FILLER_0_19_335
*676 FILLER_0_19_337
*677 FILLER_0_19_349
*678 FILLER_0_19_39
*679 FILLER_0_19_51
*680 FILLER_0_19_55
*681 FILLER_0_19_57
*682 FILLER_0_19_69
*683 FILLER_0_19_81
*684 FILLER_0_19_93
*685 FILLER_0_1_105
*686 FILLER_0_1_111
*687 FILLER_0_1_113
*688 FILLER_0_1_125
*689 FILLER_0_1_137
*690 FILLER_0_1_149
*691 FILLER_0_1_15
*692 FILLER_0_1_161
*693 FILLER_0_1_167
*694 FILLER_0_1_169
*695 FILLER_0_1_181
*696 FILLER_0_1_193
*697 FILLER_0_1_205
*698 FILLER_0_1_217
*699 FILLER_0_1_223
*700 FILLER_0_1_225
*701 FILLER_0_1_237
*702 FILLER_0_1_249
*703 FILLER_0_1_261
*704 FILLER_0_1_27
*705 FILLER_0_1_273
*706 FILLER_0_1_279
*707 FILLER_0_1_281
*708 FILLER_0_1_293
*709 FILLER_0_1_3
*710 FILLER_0_1_305
*711 FILLER_0_1_317
*712 FILLER_0_1_329
*713 FILLER_0_1_335
*714 FILLER_0_1_337
*715 FILLER_0_1_349
*716 FILLER_0_1_39
*717 FILLER_0_1_51
*718 FILLER_0_1_55
*719 FILLER_0_1_57
*720 FILLER_0_1_69
*721 FILLER_0_1_81
*722 FILLER_0_1_93
*723 FILLER_0_20_109
*724 FILLER_0_20_121
*725 FILLER_0_20_133
*726 FILLER_0_20_139
*727 FILLER_0_20_141
*728 FILLER_0_20_15
*729 FILLER_0_20_153
*730 FILLER_0_20_165
*731 FILLER_0_20_177
*732 FILLER_0_20_189
*733 FILLER_0_20_195
*734 FILLER_0_20_197
*735 FILLER_0_20_209
*736 FILLER_0_20_221
*737 FILLER_0_20_233
*738 FILLER_0_20_245
*739 FILLER_0_20_251
*740 FILLER_0_20_253
*741 FILLER_0_20_265
*742 FILLER_0_20_27
*743 FILLER_0_20_277
*744 FILLER_0_20_289
*745 FILLER_0_20_29
*746 FILLER_0_20_3
*747 FILLER_0_20_301
*748 FILLER_0_20_307
*749 FILLER_0_20_309
*750 FILLER_0_20_321
*751 FILLER_0_20_333
*752 FILLER_0_20_345
*753 FILLER_0_20_41
*754 FILLER_0_20_53
*755 FILLER_0_20_65
*756 FILLER_0_20_77
*757 FILLER_0_20_83
*758 FILLER_0_20_85
*759 FILLER_0_20_97
*760 FILLER_0_21_105
*761 FILLER_0_21_111
*762 FILLER_0_21_113
*763 FILLER_0_21_125
*764 FILLER_0_21_137
*765 FILLER_0_21_149
*766 FILLER_0_21_15
*767 FILLER_0_21_161
*768 FILLER_0_21_167
*769 FILLER_0_21_169
*770 FILLER_0_21_181
*771 FILLER_0_21_193
*772 FILLER_0_21_205
*773 FILLER_0_21_217
*774 FILLER_0_21_223
*775 FILLER_0_21_225
*776 FILLER_0_21_237
*777 FILLER_0_21_249
*778 FILLER_0_21_261
*779 FILLER_0_21_27
*780 FILLER_0_21_273
*781 FILLER_0_21_279
*782 FILLER_0_21_281
*783 FILLER_0_21_293
*784 FILLER_0_21_3
*785 FILLER_0_21_305
*786 FILLER_0_21_317
*787 FILLER_0_21_329
*788 FILLER_0_21_335
*789 FILLER_0_21_337
*790 FILLER_0_21_349
*791 FILLER_0_21_39
*792 FILLER_0_21_51
*793 FILLER_0_21_55
*794 FILLER_0_21_57
*795 FILLER_0_21_69
*796 FILLER_0_21_81
*797 FILLER_0_21_93
*798 FILLER_0_22_109
*799 FILLER_0_22_121
*800 FILLER_0_22_133
*801 FILLER_0_22_139
*802 FILLER_0_22_141
*803 FILLER_0_22_15
*804 FILLER_0_22_153
*805 FILLER_0_22_165
*806 FILLER_0_22_177
*807 FILLER_0_22_189
*808 FILLER_0_22_195
*809 FILLER_0_22_197
*810 FILLER_0_22_209
*811 FILLER_0_22_221
*812 FILLER_0_22_233
*813 FILLER_0_22_245
*814 FILLER_0_22_251
*815 FILLER_0_22_253
*816 FILLER_0_22_265
*817 FILLER_0_22_27
*818 FILLER_0_22_277
*819 FILLER_0_22_289
*820 FILLER_0_22_29
*821 FILLER_0_22_3
*822 FILLER_0_22_301
*823 FILLER_0_22_307
*824 FILLER_0_22_309
*825 FILLER_0_22_321
*826 FILLER_0_22_333
*827 FILLER_0_22_345
*828 FILLER_0_22_41
*829 FILLER_0_22_53
*830 FILLER_0_22_65
*831 FILLER_0_22_77
*832 FILLER_0_22_83
*833 FILLER_0_22_85
*834 FILLER_0_22_97
*835 FILLER_0_23_105
*836 FILLER_0_23_111
*837 FILLER_0_23_113
*838 FILLER_0_23_125
*839 FILLER_0_23_137
*840 FILLER_0_23_149
*841 FILLER_0_23_15
*842 FILLER_0_23_161
*843 FILLER_0_23_167
*844 FILLER_0_23_169
*845 FILLER_0_23_181
*846 FILLER_0_23_193
*847 FILLER_0_23_205
*848 FILLER_0_23_217
*849 FILLER_0_23_223
*850 FILLER_0_23_225
*851 FILLER_0_23_237
*852 FILLER_0_23_249
*853 FILLER_0_23_261
*854 FILLER_0_23_27
*855 FILLER_0_23_273
*856 FILLER_0_23_279
*857 FILLER_0_23_281
*858 FILLER_0_23_293
*859 FILLER_0_23_3
*860 FILLER_0_23_305
*861 FILLER_0_23_317
*862 FILLER_0_23_329
*863 FILLER_0_23_335
*864 FILLER_0_23_337
*865 FILLER_0_23_349
*866 FILLER_0_23_39
*867 FILLER_0_23_51
*868 FILLER_0_23_55
*869 FILLER_0_23_57
*870 FILLER_0_23_69
*871 FILLER_0_23_81
*872 FILLER_0_23_93
*873 FILLER_0_24_109
*874 FILLER_0_24_121
*875 FILLER_0_24_133
*876 FILLER_0_24_139
*877 FILLER_0_24_141
*878 FILLER_0_24_15
*879 FILLER_0_24_153
*880 FILLER_0_24_165
*881 FILLER_0_24_177
*882 FILLER_0_24_189
*883 FILLER_0_24_195
*884 FILLER_0_24_197
*885 FILLER_0_24_209
*886 FILLER_0_24_221
*887 FILLER_0_24_233
*888 FILLER_0_24_245
*889 FILLER_0_24_251
*890 FILLER_0_24_253
*891 FILLER_0_24_265
*892 FILLER_0_24_27
*893 FILLER_0_24_277
*894 FILLER_0_24_289
*895 FILLER_0_24_29
*896 FILLER_0_24_3
*897 FILLER_0_24_301
*898 FILLER_0_24_307
*899 FILLER_0_24_309
*900 FILLER_0_24_321
*901 FILLER_0_24_333
*902 FILLER_0_24_345
*903 FILLER_0_24_41
*904 FILLER_0_24_53
*905 FILLER_0_24_65
*906 FILLER_0_24_77
*907 FILLER_0_24_83
*908 FILLER_0_24_85
*909 FILLER_0_24_97
*910 FILLER_0_25_105
*911 FILLER_0_25_111
*912 FILLER_0_25_113
*913 FILLER_0_25_125
*914 FILLER_0_25_137
*915 FILLER_0_25_149
*916 FILLER_0_25_15
*917 FILLER_0_25_161
*918 FILLER_0_25_167
*919 FILLER_0_25_169
*920 FILLER_0_25_181
*921 FILLER_0_25_193
*922 FILLER_0_25_205
*923 FILLER_0_25_217
*924 FILLER_0_25_223
*925 FILLER_0_25_225
*926 FILLER_0_25_237
*927 FILLER_0_25_249
*928 FILLER_0_25_261
*929 FILLER_0_25_27
*930 FILLER_0_25_273
*931 FILLER_0_25_279
*932 FILLER_0_25_281
*933 FILLER_0_25_293
*934 FILLER_0_25_3
*935 FILLER_0_25_305
*936 FILLER_0_25_317
*937 FILLER_0_25_329
*938 FILLER_0_25_335
*939 FILLER_0_25_337
*940 FILLER_0_25_349
*941 FILLER_0_25_39
*942 FILLER_0_25_51
*943 FILLER_0_25_55
*944 FILLER_0_25_57
*945 FILLER_0_25_69
*946 FILLER_0_25_81
*947 FILLER_0_25_93
*948 FILLER_0_26_109
*949 FILLER_0_26_121
*950 FILLER_0_26_133
*951 FILLER_0_26_139
*952 FILLER_0_26_141
*953 FILLER_0_26_15
*954 FILLER_0_26_153
*955 FILLER_0_26_165
*956 FILLER_0_26_177
*957 FILLER_0_26_185
*958 FILLER_0_26_195
*959 FILLER_0_26_211
*960 FILLER_0_26_223
*961 FILLER_0_26_257
*962 FILLER_0_26_269
*963 FILLER_0_26_27
*964 FILLER_0_26_280
*965 FILLER_0_26_29
*966 FILLER_0_26_292
*967 FILLER_0_26_3
*968 FILLER_0_26_304
*969 FILLER_0_26_309
*970 FILLER_0_26_321
*971 FILLER_0_26_333
*972 FILLER_0_26_345
*973 FILLER_0_26_41
*974 FILLER_0_26_53
*975 FILLER_0_26_65
*976 FILLER_0_26_77
*977 FILLER_0_26_83
*978 FILLER_0_26_85
*979 FILLER_0_26_97
*980 FILLER_0_27_105
*981 FILLER_0_27_111
*982 FILLER_0_27_113
*983 FILLER_0_27_125
*984 FILLER_0_27_137
*985 FILLER_0_27_15
*986 FILLER_0_27_156
*987 FILLER_0_27_165
*988 FILLER_0_27_169
*989 FILLER_0_27_177
*990 FILLER_0_27_185
*991 FILLER_0_27_197
*992 FILLER_0_27_208
*993 FILLER_0_27_219
*994 FILLER_0_27_223
*995 FILLER_0_27_234
*996 FILLER_0_27_245
*997 FILLER_0_27_250
*998 FILLER_0_27_258
*999 FILLER_0_27_27
*1000 FILLER_0_27_278
*1001 FILLER_0_27_3
*1002 FILLER_0_27_309
*1003 FILLER_0_27_321
*1004 FILLER_0_27_333
*1005 FILLER_0_27_337
*1006 FILLER_0_27_349
*1007 FILLER_0_27_39
*1008 FILLER_0_27_51
*1009 FILLER_0_27_55
*1010 FILLER_0_27_57
*1011 FILLER_0_27_69
*1012 FILLER_0_27_81
*1013 FILLER_0_27_93
*1014 FILLER_0_28_109
*1015 FILLER_0_28_121
*1016 FILLER_0_28_133
*1017 FILLER_0_28_139
*1018 FILLER_0_28_141
*1019 FILLER_0_28_15
*1020 FILLER_0_28_150
*1021 FILLER_0_28_179
*1022 FILLER_0_28_189
*1023 FILLER_0_28_195
*1024 FILLER_0_28_203
*1025 FILLER_0_28_211
*1026 FILLER_0_28_222
*1027 FILLER_0_28_230
*1028 FILLER_0_28_238
*1029 FILLER_0_28_248
*1030 FILLER_0_28_253
*1031 FILLER_0_28_264
*1032 FILLER_0_28_27
*1033 FILLER_0_28_272
*1034 FILLER_0_28_279
*1035 FILLER_0_28_29
*1036 FILLER_0_28_291
*1037 FILLER_0_28_295
*1038 FILLER_0_28_3
*1039 FILLER_0_28_304
*1040 FILLER_0_28_327
*1041 FILLER_0_28_339
*1042 FILLER_0_28_41
*1043 FILLER_0_28_53
*1044 FILLER_0_28_65
*1045 FILLER_0_28_77
*1046 FILLER_0_28_83
*1047 FILLER_0_28_85
*1048 FILLER_0_28_97
*1049 FILLER_0_29_105
*1050 FILLER_0_29_111
*1051 FILLER_0_29_113
*1052 FILLER_0_29_125
*1053 FILLER_0_29_137
*1054 FILLER_0_29_149
*1055 FILLER_0_29_15
*1056 FILLER_0_29_167
*1057 FILLER_0_29_169
*1058 FILLER_0_29_193
*1059 FILLER_0_29_197
*1060 FILLER_0_29_208
*1061 FILLER_0_29_223
*1062 FILLER_0_29_225
*1063 FILLER_0_29_233
*1064 FILLER_0_29_244
*1065 FILLER_0_29_262
*1066 FILLER_0_29_27
*1067 FILLER_0_29_271
*1068 FILLER_0_29_288
*1069 FILLER_0_29_3
*1070 FILLER_0_29_302
*1071 FILLER_0_29_314
*1072 FILLER_0_29_320
*1073 FILLER_0_29_324
*1074 FILLER_0_29_337
*1075 FILLER_0_29_349
*1076 FILLER_0_29_39
*1077 FILLER_0_29_51
*1078 FILLER_0_29_55
*1079 FILLER_0_29_57
*1080 FILLER_0_29_69
*1081 FILLER_0_29_81
*1082 FILLER_0_29_93
*1083 FILLER_0_2_109
*1084 FILLER_0_2_121
*1085 FILLER_0_2_133
*1086 FILLER_0_2_139
*1087 FILLER_0_2_141
*1088 FILLER_0_2_15
*1089 FILLER_0_2_153
*1090 FILLER_0_2_165
*1091 FILLER_0_2_177
*1092 FILLER_0_2_189
*1093 FILLER_0_2_195
*1094 FILLER_0_2_197
*1095 FILLER_0_2_209
*1096 FILLER_0_2_221
*1097 FILLER_0_2_233
*1098 FILLER_0_2_245
*1099 FILLER_0_2_251
*1100 FILLER_0_2_253
*1101 FILLER_0_2_265
*1102 FILLER_0_2_27
*1103 FILLER_0_2_277
*1104 FILLER_0_2_289
*1105 FILLER_0_2_29
*1106 FILLER_0_2_3
*1107 FILLER_0_2_301
*1108 FILLER_0_2_307
*1109 FILLER_0_2_309
*1110 FILLER_0_2_321
*1111 FILLER_0_2_333
*1112 FILLER_0_2_345
*1113 FILLER_0_2_41
*1114 FILLER_0_2_53
*1115 FILLER_0_2_65
*1116 FILLER_0_2_77
*1117 FILLER_0_2_83
*1118 FILLER_0_2_85
*1119 FILLER_0_2_97
*1120 FILLER_0_30_109
*1121 FILLER_0_30_121
*1122 FILLER_0_30_133
*1123 FILLER_0_30_139
*1124 FILLER_0_30_141
*1125 FILLER_0_30_147
*1126 FILLER_0_30_15
*1127 FILLER_0_30_157
*1128 FILLER_0_30_169
*1129 FILLER_0_30_181
*1130 FILLER_0_30_193
*1131 FILLER_0_30_197
*1132 FILLER_0_30_205
*1133 FILLER_0_30_213
*1134 FILLER_0_30_221
*1135 FILLER_0_30_229
*1136 FILLER_0_30_251
*1137 FILLER_0_30_253
*1138 FILLER_0_30_265
*1139 FILLER_0_30_27
*1140 FILLER_0_30_277
*1141 FILLER_0_30_29
*1142 FILLER_0_30_298
*1143 FILLER_0_30_3
*1144 FILLER_0_30_307
*1145 FILLER_0_30_309
*1146 FILLER_0_30_333
*1147 FILLER_0_30_345
*1148 FILLER_0_30_41
*1149 FILLER_0_30_53
*1150 FILLER_0_30_65
*1151 FILLER_0_30_77
*1152 FILLER_0_30_83
*1153 FILLER_0_30_85
*1154 FILLER_0_30_97
*1155 FILLER_0_31_105
*1156 FILLER_0_31_111
*1157 FILLER_0_31_113
*1158 FILLER_0_31_131
*1159 FILLER_0_31_144
*1160 FILLER_0_31_15
*1161 FILLER_0_31_159
*1162 FILLER_0_31_176
*1163 FILLER_0_31_196
*1164 FILLER_0_31_212
*1165 FILLER_0_31_216
*1166 FILLER_0_31_236
*1167 FILLER_0_31_248
*1168 FILLER_0_31_256
*1169 FILLER_0_31_260
*1170 FILLER_0_31_27
*1171 FILLER_0_31_287
*1172 FILLER_0_31_295
*1173 FILLER_0_31_3
*1174 FILLER_0_31_310
*1175 FILLER_0_31_322
*1176 FILLER_0_31_331
*1177 FILLER_0_31_335
*1178 FILLER_0_31_337
*1179 FILLER_0_31_349
*1180 FILLER_0_31_39
*1181 FILLER_0_31_51
*1182 FILLER_0_31_55
*1183 FILLER_0_31_57
*1184 FILLER_0_31_69
*1185 FILLER_0_31_81
*1186 FILLER_0_31_93
*1187 FILLER_0_32_109
*1188 FILLER_0_32_117
*1189 FILLER_0_32_132
*1190 FILLER_0_32_141
*1191 FILLER_0_32_145
*1192 FILLER_0_32_15
*1193 FILLER_0_32_165
*1194 FILLER_0_32_177
*1195 FILLER_0_32_189
*1196 FILLER_0_32_195
*1197 FILLER_0_32_200
*1198 FILLER_0_32_215
*1199 FILLER_0_32_223
*1200 FILLER_0_32_235
*1201 FILLER_0_32_247
*1202 FILLER_0_32_251
*1203 FILLER_0_32_253
*1204 FILLER_0_32_27
*1205 FILLER_0_32_279
*1206 FILLER_0_32_288
*1207 FILLER_0_32_29
*1208 FILLER_0_32_296
*1209 FILLER_0_32_3
*1210 FILLER_0_32_309
*1211 FILLER_0_32_323
*1212 FILLER_0_32_337
*1213 FILLER_0_32_349
*1214 FILLER_0_32_41
*1215 FILLER_0_32_53
*1216 FILLER_0_32_65
*1217 FILLER_0_32_77
*1218 FILLER_0_32_83
*1219 FILLER_0_32_85
*1220 FILLER_0_32_97
*1221 FILLER_0_33_105
*1222 FILLER_0_33_111
*1223 FILLER_0_33_113
*1224 FILLER_0_33_125
*1225 FILLER_0_33_130
*1226 FILLER_0_33_142
*1227 FILLER_0_33_15
*1228 FILLER_0_33_153
*1229 FILLER_0_33_157
*1230 FILLER_0_33_163
*1231 FILLER_0_33_167
*1232 FILLER_0_33_169
*1233 FILLER_0_33_180
*1234 FILLER_0_33_200
*1235 FILLER_0_33_212
*1236 FILLER_0_33_236
*1237 FILLER_0_33_247
*1238 FILLER_0_33_260
*1239 FILLER_0_33_268
*1240 FILLER_0_33_27
*1241 FILLER_0_33_281
*1242 FILLER_0_33_293
*1243 FILLER_0_33_3
*1244 FILLER_0_33_305
*1245 FILLER_0_33_317
*1246 FILLER_0_33_330
*1247 FILLER_0_33_337
*1248 FILLER_0_33_349
*1249 FILLER_0_33_39
*1250 FILLER_0_33_51
*1251 FILLER_0_33_55
*1252 FILLER_0_33_57
*1253 FILLER_0_33_69
*1254 FILLER_0_33_81
*1255 FILLER_0_33_93
*1256 FILLER_0_34_109
*1257 FILLER_0_34_121
*1258 FILLER_0_34_15
*1259 FILLER_0_34_151
*1260 FILLER_0_34_156
*1261 FILLER_0_34_166
*1262 FILLER_0_34_182
*1263 FILLER_0_34_194
*1264 FILLER_0_34_197
*1265 FILLER_0_34_203
*1266 FILLER_0_34_212
*1267 FILLER_0_34_216
*1268 FILLER_0_34_225
*1269 FILLER_0_34_229
*1270 FILLER_0_34_234
*1271 FILLER_0_34_245
*1272 FILLER_0_34_251
*1273 FILLER_0_34_262
*1274 FILLER_0_34_27
*1275 FILLER_0_34_275
*1276 FILLER_0_34_29
*1277 FILLER_0_34_292
*1278 FILLER_0_34_3
*1279 FILLER_0_34_306
*1280 FILLER_0_34_309
*1281 FILLER_0_34_317
*1282 FILLER_0_34_337
*1283 FILLER_0_34_349
*1284 FILLER_0_34_41
*1285 FILLER_0_34_53
*1286 FILLER_0_34_65
*1287 FILLER_0_34_77
*1288 FILLER_0_34_83
*1289 FILLER_0_34_85
*1290 FILLER_0_34_97
*1291 FILLER_0_35_105
*1292 FILLER_0_35_111
*1293 FILLER_0_35_113
*1294 FILLER_0_35_125
*1295 FILLER_0_35_137
*1296 FILLER_0_35_145
*1297 FILLER_0_35_15
*1298 FILLER_0_35_152
*1299 FILLER_0_35_158
*1300 FILLER_0_35_166
*1301 FILLER_0_35_169
*1302 FILLER_0_35_180
*1303 FILLER_0_35_186
*1304 FILLER_0_35_192
*1305 FILLER_0_35_222
*1306 FILLER_0_35_225
*1307 FILLER_0_35_240
*1308 FILLER_0_35_252
*1309 FILLER_0_35_265
*1310 FILLER_0_35_27
*1311 FILLER_0_35_277
*1312 FILLER_0_35_284
*1313 FILLER_0_35_295
*1314 FILLER_0_35_3
*1315 FILLER_0_35_307
*1316 FILLER_0_35_330
*1317 FILLER_0_35_337
*1318 FILLER_0_35_349
*1319 FILLER_0_35_39
*1320 FILLER_0_35_51
*1321 FILLER_0_35_55
*1322 FILLER_0_35_57
*1323 FILLER_0_35_69
*1324 FILLER_0_35_81
*1325 FILLER_0_35_93
*1326 FILLER_0_36_109
*1327 FILLER_0_36_121
*1328 FILLER_0_36_133
*1329 FILLER_0_36_139
*1330 FILLER_0_36_141
*1331 FILLER_0_36_149
*1332 FILLER_0_36_15
*1333 FILLER_0_36_164
*1334 FILLER_0_36_193
*1335 FILLER_0_36_226
*1336 FILLER_0_36_238
*1337 FILLER_0_36_242
*1338 FILLER_0_36_250
*1339 FILLER_0_36_263
*1340 FILLER_0_36_27
*1341 FILLER_0_36_29
*1342 FILLER_0_36_292
*1343 FILLER_0_36_3
*1344 FILLER_0_36_305
*1345 FILLER_0_36_313
*1346 FILLER_0_36_333
*1347 FILLER_0_36_345
*1348 FILLER_0_36_41
*1349 FILLER_0_36_53
*1350 FILLER_0_36_65
*1351 FILLER_0_36_77
*1352 FILLER_0_36_83
*1353 FILLER_0_36_85
*1354 FILLER_0_36_97
*1355 FILLER_0_37_105
*1356 FILLER_0_37_111
*1357 FILLER_0_37_113
*1358 FILLER_0_37_125
*1359 FILLER_0_37_137
*1360 FILLER_0_37_149
*1361 FILLER_0_37_15
*1362 FILLER_0_37_166
*1363 FILLER_0_37_169
*1364 FILLER_0_37_212
*1365 FILLER_0_37_225
*1366 FILLER_0_37_247
*1367 FILLER_0_37_264
*1368 FILLER_0_37_27
*1369 FILLER_0_37_279
*1370 FILLER_0_37_293
*1371 FILLER_0_37_3
*1372 FILLER_0_37_316
*1373 FILLER_0_37_327
*1374 FILLER_0_37_335
*1375 FILLER_0_37_337
*1376 FILLER_0_37_349
*1377 FILLER_0_37_39
*1378 FILLER_0_37_51
*1379 FILLER_0_37_55
*1380 FILLER_0_37_57
*1381 FILLER_0_37_69
*1382 FILLER_0_37_81
*1383 FILLER_0_37_93
*1384 FILLER_0_38_104
*1385 FILLER_0_38_110
*1386 FILLER_0_38_116
*1387 FILLER_0_38_122
*1388 FILLER_0_38_128
*1389 FILLER_0_38_134
*1390 FILLER_0_38_141
*1391 FILLER_0_38_15
*1392 FILLER_0_38_169
*1393 FILLER_0_38_184
*1394 FILLER_0_38_197
*1395 FILLER_0_38_213
*1396 FILLER_0_38_237
*1397 FILLER_0_38_264
*1398 FILLER_0_38_27
*1399 FILLER_0_38_279
*1400 FILLER_0_38_281
*1401 FILLER_0_38_29
*1402 FILLER_0_38_3
*1403 FILLER_0_38_305
*1404 FILLER_0_38_327
*1405 FILLER_0_38_335
*1406 FILLER_0_38_337
*1407 FILLER_0_38_349
*1408 FILLER_0_38_41
*1409 FILLER_0_38_53
*1410 FILLER_0_38_57
*1411 FILLER_0_38_68
*1412 FILLER_0_38_74
*1413 FILLER_0_38_80
*1414 FILLER_0_38_88
*1415 FILLER_0_38_92
*1416 FILLER_0_38_98
*1417 FILLER_0_3_105
*1418 FILLER_0_3_111
*1419 FILLER_0_3_113
*1420 FILLER_0_3_125
*1421 FILLER_0_3_137
*1422 FILLER_0_3_149
*1423 FILLER_0_3_15
*1424 FILLER_0_3_161
*1425 FILLER_0_3_167
*1426 FILLER_0_3_169
*1427 FILLER_0_3_181
*1428 FILLER_0_3_193
*1429 FILLER_0_3_205
*1430 FILLER_0_3_217
*1431 FILLER_0_3_223
*1432 FILLER_0_3_225
*1433 FILLER_0_3_237
*1434 FILLER_0_3_249
*1435 FILLER_0_3_261
*1436 FILLER_0_3_27
*1437 FILLER_0_3_273
*1438 FILLER_0_3_279
*1439 FILLER_0_3_281
*1440 FILLER_0_3_293
*1441 FILLER_0_3_3
*1442 FILLER_0_3_305
*1443 FILLER_0_3_317
*1444 FILLER_0_3_329
*1445 FILLER_0_3_335
*1446 FILLER_0_3_337
*1447 FILLER_0_3_349
*1448 FILLER_0_3_39
*1449 FILLER_0_3_51
*1450 FILLER_0_3_55
*1451 FILLER_0_3_57
*1452 FILLER_0_3_69
*1453 FILLER_0_3_81
*1454 FILLER_0_3_93
*1455 FILLER_0_4_109
*1456 FILLER_0_4_121
*1457 FILLER_0_4_133
*1458 FILLER_0_4_139
*1459 FILLER_0_4_141
*1460 FILLER_0_4_15
*1461 FILLER_0_4_153
*1462 FILLER_0_4_165
*1463 FILLER_0_4_177
*1464 FILLER_0_4_189
*1465 FILLER_0_4_195
*1466 FILLER_0_4_197
*1467 FILLER_0_4_209
*1468 FILLER_0_4_221
*1469 FILLER_0_4_233
*1470 FILLER_0_4_245
*1471 FILLER_0_4_251
*1472 FILLER_0_4_253
*1473 FILLER_0_4_265
*1474 FILLER_0_4_27
*1475 FILLER_0_4_277
*1476 FILLER_0_4_289
*1477 FILLER_0_4_29
*1478 FILLER_0_4_3
*1479 FILLER_0_4_301
*1480 FILLER_0_4_307
*1481 FILLER_0_4_309
*1482 FILLER_0_4_321
*1483 FILLER_0_4_333
*1484 FILLER_0_4_345
*1485 FILLER_0_4_41
*1486 FILLER_0_4_53
*1487 FILLER_0_4_65
*1488 FILLER_0_4_77
*1489 FILLER_0_4_83
*1490 FILLER_0_4_85
*1491 FILLER_0_4_97
*1492 FILLER_0_5_105
*1493 FILLER_0_5_111
*1494 FILLER_0_5_113
*1495 FILLER_0_5_125
*1496 FILLER_0_5_137
*1497 FILLER_0_5_149
*1498 FILLER_0_5_15
*1499 FILLER_0_5_161
*1500 FILLER_0_5_167
*1501 FILLER_0_5_169
*1502 FILLER_0_5_181
*1503 FILLER_0_5_193
*1504 FILLER_0_5_205
*1505 FILLER_0_5_217
*1506 FILLER_0_5_223
*1507 FILLER_0_5_225
*1508 FILLER_0_5_237
*1509 FILLER_0_5_249
*1510 FILLER_0_5_261
*1511 FILLER_0_5_27
*1512 FILLER_0_5_273
*1513 FILLER_0_5_279
*1514 FILLER_0_5_281
*1515 FILLER_0_5_293
*1516 FILLER_0_5_3
*1517 FILLER_0_5_305
*1518 FILLER_0_5_317
*1519 FILLER_0_5_329
*1520 FILLER_0_5_335
*1521 FILLER_0_5_337
*1522 FILLER_0_5_349
*1523 FILLER_0_5_39
*1524 FILLER_0_5_51
*1525 FILLER_0_5_55
*1526 FILLER_0_5_57
*1527 FILLER_0_5_69
*1528 FILLER_0_5_81
*1529 FILLER_0_5_93
*1530 FILLER_0_6_109
*1531 FILLER_0_6_121
*1532 FILLER_0_6_133
*1533 FILLER_0_6_139
*1534 FILLER_0_6_141
*1535 FILLER_0_6_15
*1536 FILLER_0_6_153
*1537 FILLER_0_6_165
*1538 FILLER_0_6_177
*1539 FILLER_0_6_189
*1540 FILLER_0_6_195
*1541 FILLER_0_6_197
*1542 FILLER_0_6_209
*1543 FILLER_0_6_221
*1544 FILLER_0_6_233
*1545 FILLER_0_6_245
*1546 FILLER_0_6_251
*1547 FILLER_0_6_253
*1548 FILLER_0_6_265
*1549 FILLER_0_6_27