*SPEF "ieee 1481-1999"
*DESIGN "tt_um_Leaky_Integrate_Fire_nfjesifb"
*DATE "11:11:11 Fri 11 11, 1111"
*VENDOR "OpenRCX"
*PROGRAM "Parallel Extraction"
*VERSION "1.0"
*DESIGN_FLOW "NAME_SCOPE LOCAL" "PIN_CAP NONE"
*DIVIDER /
*DELIMITER :
*BUS_DELIMITER []
*T_UNIT 1 NS
*C_UNIT 1 PF
*R_UNIT 1 OHM
*L_UNIT 1 HENRY

*NAME_MAP
*3 clk
*4 ena
*5 rst_n
*6 ui_in[0]
*7 ui_in[1]
*8 ui_in[2]
*9 ui_in[3]
*10 ui_in[4]
*11 ui_in[5]
*12 ui_in[6]
*13 ui_in[7]
*14 uio_in[0]
*15 uio_in[1]
*16 uio_in[2]
*17 uio_in[3]
*18 uio_in[4]
*19 uio_in[5]
*20 uio_in[6]
*21 uio_in[7]
*22 net9
*23 net10
*24 net11
*25 net12
*26 net13
*27 net14
*28 net15
*29 net16
*30 uio_out[0]
*31 net17
*32 net18
*33 net19
*34 net20
*35 net21
*36 net22
*37 net23
*38 uo_out[0]
*39 uo_out[1]
*40 uo_out[2]
*41 uo_out[3]
*42 uo_out[4]
*43 uo_out[5]
*44 uo_out[6]
*45 uo_out[7]
*46 _0000_
*47 _0002_
*48 _0003_
*49 _0004_
*50 _0005_
*51 _0006_
*52 _0007_
*53 _0008_
*54 _0009_
*55 _0010_
*56 _0011_
*57 _0012_
*58 _0013_
*59 _0014_
*60 _0015_
*61 _0016_
*62 _0017_
*63 _0018_
*64 _0019_
*65 _0020_
*66 _0021_
*67 _0022_
*68 _0023_
*69 _0024_
*70 _0025_
*71 _0029_
*72 _0030_
*73 _0031_
*74 _0032_
*75 _0033_
*76 _0034_
*77 _0035_
*78 _0036_
*79 _0037_
*80 _0038_
*81 _0039_
*82 _0040_
*83 _0041_
*84 _0042_
*85 _0043_
*86 _0044_
*87 _0045_
*88 _0046_
*89 _0047_
*90 _0048_
*91 _0049_
*92 _0050_
*93 _0051_
*94 _0052_
*95 _0053_
*96 _0054_
*97 _0055_
*98 _0056_
*99 _0057_
*100 _0058_
*101 _0059_
*102 _0060_
*103 _0061_
*104 _0062_
*105 _0063_
*106 _0064_
*107 _0065_
*108 _0066_
*109 _0067_
*110 _0068_
*111 _0069_
*112 _0070_
*113 _0071_
*114 _0072_
*115 _0073_
*116 _0074_
*117 _0075_
*118 _0076_
*119 _0077_
*120 _0078_
*121 _0079_
*122 _0080_
*123 _0081_
*124 _0082_
*125 _0083_
*126 _0084_
*127 _0085_
*128 _0086_
*129 _0087_
*130 _0088_
*131 _0089_
*132 _0090_
*133 _0091_
*134 _0092_
*135 _0093_
*136 _0094_
*137 _0095_
*138 _0096_
*139 _0097_
*140 _0098_
*141 _0099_
*142 _0100_
*143 _0101_
*144 _0102_
*145 _0103_
*146 _0104_
*147 _0105_
*148 _0106_
*149 _0107_
*150 _0108_
*151 _0109_
*152 _0110_
*153 _0111_
*154 _0112_
*155 _0113_
*156 _0114_
*157 _0115_
*158 _0116_
*159 _0117_
*160 _0118_
*161 _0119_
*162 _0120_
*163 _0121_
*164 _0122_
*165 _0123_
*166 _0124_
*167 _0125_
*168 _0126_
*169 _0127_
*170 _0128_
*171 _0129_
*172 _0130_
*173 _0131_
*174 _0132_
*175 _0133_
*176 _0134_
*177 _0135_
*178 _0136_
*179 _0137_
*180 _0138_
*181 _0139_
*182 _0140_
*183 _0141_
*184 _0142_
*185 _0143_
*186 _0144_
*187 _0145_
*188 _0146_
*189 _0147_
*190 _0148_
*191 _0149_
*192 _0150_
*193 _0151_
*194 _0152_
*195 _0153_
*196 _0154_
*197 _0155_
*198 _0156_
*199 _0157_
*200 _0158_
*201 _0159_
*202 _0160_
*203 _0161_
*204 _0162_
*205 _0163_
*206 _0164_
*207 _0165_
*208 _0166_
*209 _0167_
*210 _0168_
*211 _0169_
*212 _0170_
*213 _0171_
*214 _0172_
*215 _0173_
*216 _0174_
*217 _0175_
*218 _0176_
*219 _0177_
*220 _0178_
*221 _0179_
*222 _0180_
*223 _0181_
*224 _0182_
*225 _0183_
*226 _0184_
*227 _0185_
*228 _0186_
*229 _0187_
*230 _0188_
*231 _0189_
*232 _0190_
*233 _0191_
*234 _0192_
*235 _0193_
*236 _0194_
*237 _0195_
*238 _0196_
*239 _0197_
*240 _0198_
*241 _0199_
*242 _0200_
*243 _0201_
*244 _0202_
*245 _0203_
*246 _0204_
*247 _0205_
*248 _0206_
*249 _0207_
*250 _0208_
*251 _0209_
*252 _0210_
*253 _0211_
*254 _0212_
*255 _0213_
*256 _0214_
*257 _0215_
*258 _0216_
*259 _0217_
*260 _0218_
*261 _0219_
*262 _0220_
*263 _0221_
*264 _0222_
*265 _0223_
*266 _0224_
*267 _0225_
*268 _0226_
*269 _0227_
*270 _0228_
*271 _0229_
*272 _0230_
*273 _0231_
*274 _0232_
*275 _0233_
*276 _0234_
*277 _0235_
*278 _0236_
*279 _0237_
*280 _0238_
*281 _0239_
*282 _0240_
*283 _0241_
*284 _0242_
*285 _0243_
*286 _0244_
*287 _0245_
*288 _0246_
*289 _0247_
*290 _0248_
*291 _0249_
*292 _0250_
*293 _0251_
*294 _0252_
*295 _0253_
*296 _0254_
*297 _0255_
*298 _0256_
*299 _0257_
*300 _0258_
*301 _0259_
*302 _0260_
*303 _0261_
*304 _0262_
*305 _0263_
*306 _0264_
*307 _0265_
*308 _0266_
*309 _0267_
*310 _0268_
*311 _0269_
*312 _0270_
*313 _0271_
*314 _0272_
*315 _0273_
*316 _0274_
*317 _0275_
*318 _0276_
*319 _0277_
*320 _0278_
*321 _0279_
*322 _0280_
*323 _0281_
*324 _0282_
*325 _0283_
*326 _0284_
*327 _0285_
*328 _0286_
*329 _0287_
*330 _0288_
*331 _0289_
*332 _0290_
*333 _0291_
*334 _0292_
*335 _0293_
*336 _0294_
*337 _0295_
*338 _0296_
*339 _0297_
*340 _0298_
*341 _0299_
*342 _0300_
*343 _0301_
*344 _0302_
*345 _0303_
*346 _0304_
*347 _0305_
*348 _0306_
*349 _0307_
*350 _0308_
*351 _0309_
*352 _0310_
*353 _0311_
*354 _0312_
*355 _0313_
*356 _0314_
*357 _0315_
*358 _0316_
*359 _0317_
*360 _0318_
*361 _0319_
*362 _0320_
*363 _0321_
*364 _0322_
*365 _0323_
*366 _0324_
*367 _0325_
*368 _0326_
*369 _0327_
*370 _0328_
*371 _0329_
*372 _0330_
*373 _0331_
*374 _0332_
*375 _0333_
*376 _0334_
*377 _0335_
*378 _0336_
*379 _0337_
*380 _0338_
*381 _0339_
*382 _0340_
*383 _0341_
*384 _0342_
*385 _0343_
*386 _0344_
*387 _0345_
*388 _0346_
*389 _0347_
*390 _0348_
*391 _0349_
*392 _0350_
*393 _0351_
*394 _0352_
*395 _0353_
*396 _0354_
*397 _0355_
*398 _0356_
*399 _0357_
*400 _0358_
*401 _0359_
*402 _0360_
*403 _0361_
*404 _0362_
*405 _0363_
*406 _0364_
*407 _0365_
*408 _0366_
*409 _0367_
*410 _0368_
*411 _0369_
*412 _0370_
*413 _0371_
*414 _0372_
*415 _0373_
*416 _0374_
*417 _0375_
*418 _0376_
*419 _0377_
*420 _0378_
*421 _0379_
*422 _0380_
*423 _0381_
*424 _0382_
*425 _0383_
*426 _0384_
*427 _0385_
*428 _0386_
*429 _0387_
*430 _0388_
*431 _0389_
*432 _0390_
*433 _0391_
*434 _0392_
*435 _0393_
*436 _0394_
*437 _0395_
*438 _0396_
*439 _0397_
*440 _0398_
*441 _0399_
*442 _0400_
*443 _0401_
*444 _0402_
*445 _0403_
*446 _0404_
*447 _0405_
*448 _0406_
*449 _0407_
*450 _0408_
*451 _0409_
*452 _0410_
*453 _0411_
*454 _0412_
*455 _0413_
*456 _0414_
*457 _0415_
*458 _0416_
*459 _0417_
*460 _0418_
*461 _0419_
*462 _0420_
*463 _0421_
*464 _0422_
*465 _0423_
*466 _0424_
*467 _0425_
*468 _0426_
*469 _0427_
*470 _0428_
*471 _0429_
*472 _0430_
*473 _0431_
*474 _0432_
*475 _0433_
*476 _0434_
*477 _0435_
*478 _0436_
*479 _0437_
*480 _0438_
*481 _0439_
*482 _0440_
*483 _0441_
*484 _0442_
*485 _0443_
*486 _0444_
*487 _0445_
*488 _0446_
*489 _0447_
*490 _0448_
*491 _0449_
*492 _0450_
*493 _0451_
*494 _0452_
*495 _0453_
*496 _0454_
*497 _0455_
*498 _0456_
*499 _0457_
*500 _0458_
*501 _0459_
*502 _0460_
*503 _0461_
*504 _0462_
*505 _0463_
*506 _0464_
*507 _0465_
*508 _0466_
*509 _0467_
*510 _0468_
*511 _0469_
*512 _0470_
*513 _0471_
*514 _0472_
*515 _0473_
*516 _0474_
*517 _0475_
*518 _0476_
*519 _0477_
*520 _0478_
*521 _0479_
*522 _0480_
*523 _0481_
*524 _0482_
*525 clknet_0_clk
*526 clknet_2_0__leaf_clk
*527 clknet_2_1__leaf_clk
*528 clknet_2_2__leaf_clk
*529 clknet_2_3__leaf_clk
*530 net1
*531 net2
*532 net24
*533 net25
*534 net26
*535 net27
*536 net28
*537 net29
*538 net3
*539 net30
*540 net31
*541 net32
*542 net4
*543 net5
*544 net6
*545 net7
*546 net8
*547 t\.axon
*548 t\.lif\.compare\.threshold\[0\]
*549 t\.lif\.compare\.threshold\[1\]
*550 t\.lif\.compare\.threshold\[2\]
*551 t\.lif\.compare\.threshold\[3\]
*552 t\.lif\.compare\.threshold\[4\]
*553 t\.lif\.compare\.threshold\[5\]
*554 t\.lif\.compare\.threshold\[6\]
*555 t\.lif\.compare\.threshold\[7\]
*556 t\.lif\.decayer\.tau\[0\]
*557 t\.lif\.decayer\.tau\[1\]
*558 t\.lif\.decayer\.tau\[2\]
*559 t\.lif\.decayer\.tau\[3\]
*560 t\.lif\.decayer\.tau\[4\]
*561 t\.lif\.decayer\.tau\[5\]
*562 t\.lif\.decayer\.tau\[6\]
*563 t\.lif\.decayer\.tau\[7\]
*564 t\.lif\.scalar\.weight\[0\]
*565 t\.lif\.scalar\.weight\[1\]
*566 t\.lif\.scalar\.weight\[2\]
*567 t\.lif\.scalar\.weight\[3\]
*568 t\.lif\.scalar\.weight\[4\]
*569 t\.lif\.scalar\.weight\[5\]
*570 t\.lif\.scalar\.weight\[6\]
*571 t\.lif\.scalar\.weight\[7\]
*572 t\.sv\.appender\[0\]
*573 t\.sv\.appender\[1\]
*574 t\.sv\.appender\[2\]
*575 t\.sv\.tauReg\[0\]
*576 t\.sv\.tauReg\[1\]
*577 t\.sv\.tauReg\[2\]
*578 t\.sv\.tauReg\[3\]
*579 t\.sv\.tauReg\[4\]
*580 t\.sv\.tauReg\[5\]
*581 t\.sv\.tauReg\[6\]
*582 t\.sv\.tauReg\[7\]
*583 t\.sv\.thresholdReg\[0\]
*584 t\.sv\.thresholdReg\[1\]
*585 t\.sv\.thresholdReg\[2\]
*586 t\.sv\.thresholdReg\[3\]
*587 t\.sv\.thresholdReg\[4\]
*588 t\.sv\.thresholdReg\[5\]
*589 t\.sv\.thresholdReg\[6\]
*590 t\.sv\.thresholdReg\[7\]
*591 t\.sv\.weightReg\[0\]
*592 t\.sv\.weightReg\[1\]
*593 t\.sv\.weightReg\[2\]
*594 t\.sv\.weightReg\[3\]
*595 t\.sv\.weightReg\[4\]
*596 t\.sv\.weightReg\[5\]
*597 t\.sv\.weightReg\[6\]
*598 t\.sv\.weightReg\[7\]
*599 FILLER_0_0_109
*600 FILLER_0_0_113
*601 FILLER_0_0_125
*602 FILLER_0_0_137
*603 FILLER_0_0_141
*604 FILLER_0_0_15
*605 FILLER_0_0_153
*606 FILLER_0_0_165
*607 FILLER_0_0_169
*608 FILLER_0_0_181
*609 FILLER_0_0_193
*610 FILLER_0_0_197
*611 FILLER_0_0_209
*612 FILLER_0_0_221
*613 FILLER_0_0_225
*614 FILLER_0_0_237
*615 FILLER_0_0_249
*616 FILLER_0_0_253
*617 FILLER_0_0_265
*618 FILLER_0_0_27
*619 FILLER_0_0_277
*620 FILLER_0_0_281
*621 FILLER_0_0_29
*622 FILLER_0_0_293
*623 FILLER_0_0_3
*624 FILLER_0_0_305
*625 FILLER_0_0_309
*626 FILLER_0_0_321
*627 FILLER_0_0_333
*628 FILLER_0_0_337
*629 FILLER_0_0_349
*630 FILLER_0_0_41
*631 FILLER_0_0_53
*632 FILLER_0_0_57
*633 FILLER_0_0_69
*634 FILLER_0_0_81
*635 FILLER_0_0_85
*636 FILLER_0_0_97
*637 FILLER_0_10_109
*638 FILLER_0_10_121
*639 FILLER_0_10_133
*640 FILLER_0_10_139
*641 FILLER_0_10_141
*642 FILLER_0_10_15
*643 FILLER_0_10_153
*644 FILLER_0_10_165
*645 FILLER_0_10_177
*646 FILLER_0_10_189
*647 FILLER_0_10_195
*648 FILLER_0_10_197
*649 FILLER_0_10_209
*650 FILLER_0_10_221
*651 FILLER_0_10_233
*652 FILLER_0_10_245
*653 FILLER_0_10_251
*654 FILLER_0_10_253
*655 FILLER_0_10_265
*656 FILLER_0_10_27
*657 FILLER_0_10_277
*658 FILLER_0_10_289
*659 FILLER_0_10_29
*660 FILLER_0_10_3
*661 FILLER_0_10_301
*662 FILLER_0_10_307
*663 FILLER_0_10_309
*664 FILLER_0_10_321
*665 FILLER_0_10_333
*666 FILLER_0_10_345
*667 FILLER_0_10_41
*668 FILLER_0_10_53
*669 FILLER_0_10_65
*670 FILLER_0_10_77
*671 FILLER_0_10_83
*672 FILLER_0_10_85
*673 FILLER_0_10_97
*674 FILLER_0_11_105
*675 FILLER_0_11_111
*676 FILLER_0_11_113
*677 FILLER_0_11_125
*678 FILLER_0_11_137
*679 FILLER_0_11_149
*680 FILLER_0_11_15
*681 FILLER_0_11_161
*682 FILLER_0_11_167
*683 FILLER_0_11_169
*684 FILLER_0_11_181
*685 FILLER_0_11_193
*686 FILLER_0_11_205
*687 FILLER_0_11_217
*688 FILLER_0_11_223
*689 FILLER_0_11_225
*690 FILLER_0_11_237
*691 FILLER_0_11_249
*692 FILLER_0_11_261
*693 FILLER_0_11_27
*694 FILLER_0_11_273
*695 FILLER_0_11_279
*696 FILLER_0_11_281
*697 FILLER_0_11_293
*698 FILLER_0_11_3
*699 FILLER_0_11_305
*700 FILLER_0_11_317
*701 FILLER_0_11_329
*702 FILLER_0_11_335
*703 FILLER_0_11_337
*704 FILLER_0_11_349
*705 FILLER_0_11_39
*706 FILLER_0_11_51
*707 FILLER_0_11_55
*708 FILLER_0_11_57
*709 FILLER_0_11_69
*710 FILLER_0_11_81
*711 FILLER_0_11_93
*712 FILLER_0_12_109
*713 FILLER_0_12_121
*714 FILLER_0_12_133
*715 FILLER_0_12_139
*716 FILLER_0_12_141
*717 FILLER_0_12_15
*718 FILLER_0_12_153
*719 FILLER_0_12_165
*720 FILLER_0_12_177
*721 FILLER_0_12_189
*722 FILLER_0_12_195
*723 FILLER_0_12_197
*724 FILLER_0_12_209
*725 FILLER_0_12_221
*726 FILLER_0_12_233
*727 FILLER_0_12_245
*728 FILLER_0_12_251
*729 FILLER_0_12_253
*730 FILLER_0_12_265
*731 FILLER_0_12_27
*732 FILLER_0_12_277
*733 FILLER_0_12_289
*734 FILLER_0_12_29
*735 FILLER_0_12_3
*736 FILLER_0_12_301
*737 FILLER_0_12_307
*738 FILLER_0_12_309
*739 FILLER_0_12_321
*740 FILLER_0_12_333
*741 FILLER_0_12_345
*742 FILLER_0_12_41
*743 FILLER_0_12_53
*744 FILLER_0_12_65
*745 FILLER_0_12_77
*746 FILLER_0_12_83
*747 FILLER_0_12_85
*748 FILLER_0_12_97
*749 FILLER_0_13_105
*750 FILLER_0_13_111
*751 FILLER_0_13_113
*752 FILLER_0_13_125
*753 FILLER_0_13_137
*754 FILLER_0_13_149
*755 FILLER_0_13_15
*756 FILLER_0_13_161
*757 FILLER_0_13_167
*758 FILLER_0_13_169
*759 FILLER_0_13_181
*760 FILLER_0_13_193
*761 FILLER_0_13_205
*762 FILLER_0_13_217
*763 FILLER_0_13_223
*764 FILLER_0_13_225
*765 FILLER_0_13_237
*766 FILLER_0_13_249
*767 FILLER_0_13_261
*768 FILLER_0_13_27
*769 FILLER_0_13_273
*770 FILLER_0_13_279
*771 FILLER_0_13_281
*772 FILLER_0_13_293
*773 FILLER_0_13_3
*774 FILLER_0_13_305
*775 FILLER_0_13_317
*776 FILLER_0_13_329
*777 FILLER_0_13_335
*778 FILLER_0_13_337
*779 FILLER_0_13_349
*780 FILLER_0_13_39
*781 FILLER_0_13_51
*782 FILLER_0_13_55
*783 FILLER_0_13_57
*784 FILLER_0_13_69
*785 FILLER_0_13_81
*786 FILLER_0_13_93
*787 FILLER_0_14_109
*788 FILLER_0_14_121
*789 FILLER_0_14_133
*790 FILLER_0_14_139
*791 FILLER_0_14_141
*792 FILLER_0_14_15
*793 FILLER_0_14_153
*794 FILLER_0_14_165
*795 FILLER_0_14_177
*796 FILLER_0_14_189
*797 FILLER_0_14_195
*798 FILLER_0_14_197
*799 FILLER_0_14_209
*800 FILLER_0_14_221
*801 FILLER_0_14_233
*802 FILLER_0_14_245
*803 FILLER_0_14_251
*804 FILLER_0_14_253
*805 FILLER_0_14_265
*806 FILLER_0_14_27
*807 FILLER_0_14_277
*808 FILLER_0_14_289
*809 FILLER_0_14_29
*810 FILLER_0_14_3
*811 FILLER_0_14_301
*812 FILLER_0_14_307
*813 FILLER_0_14_309
*814 FILLER_0_14_321
*815 FILLER_0_14_333
*816 FILLER_0_14_345
*817 FILLER_0_14_41
*818 FILLER_0_14_53
*819 FILLER_0_14_65
*820 FILLER_0_14_77
*821 FILLER_0_14_83
*822 FILLER_0_14_85
*823 FILLER_0_14_97
*824 FILLER_0_15_103
*825 FILLER_0_15_111
*826 FILLER_0_15_128
*827 FILLER_0_15_140
*828 FILLER_0_15_15
*829 FILLER_0_15_152
*830 FILLER_0_15_166
*831 FILLER_0_15_176
*832 FILLER_0_15_188
*833 FILLER_0_15_197
*834 FILLER_0_15_209
*835 FILLER_0_15_221
*836 FILLER_0_15_231
*837 FILLER_0_15_243
*838 FILLER_0_15_255
*839 FILLER_0_15_267
*840 FILLER_0_15_27
*841 FILLER_0_15_279
*842 FILLER_0_15_281
*843 FILLER_0_15_293
*844 FILLER_0_15_3
*845 FILLER_0_15_305
*846 FILLER_0_15_317
*847 FILLER_0_15_329
*848 FILLER_0_15_335
*849 FILLER_0_15_337
*850 FILLER_0_15_349
*851 FILLER_0_15_39
*852 FILLER_0_15_51
*853 FILLER_0_15_55
*854 FILLER_0_15_57
*855 FILLER_0_15_69
*856 FILLER_0_15_81
*857 FILLER_0_15_93
*858 FILLER_0_15_97
*859 FILLER_0_16_113
*860 FILLER_0_16_121
*861 FILLER_0_16_132
*862 FILLER_0_16_15
*863 FILLER_0_16_154
*864 FILLER_0_16_167
*865 FILLER_0_16_179
*866 FILLER_0_16_191
*867 FILLER_0_16_195
*868 FILLER_0_16_197
*869 FILLER_0_16_203
*870 FILLER_0_16_215
*871 FILLER_0_16_219
*872 FILLER_0_16_228
*873 FILLER_0_16_240
*874 FILLER_0_16_253
*875 FILLER_0_16_265
*876 FILLER_0_16_27
*877 FILLER_0_16_277
*878 FILLER_0_16_289
*879 FILLER_0_16_29
*880 FILLER_0_16_3
*881 FILLER_0_16_301
*882 FILLER_0_16_307
*883 FILLER_0_16_309
*884 FILLER_0_16_321
*885 FILLER_0_16_333
*886 FILLER_0_16_345
*887 FILLER_0_16_41
*888 FILLER_0_16_53
*889 FILLER_0_16_65
*890 FILLER_0_16_73
*891 FILLER_0_16_79
*892 FILLER_0_16_83
*893 FILLER_0_16_92
*894 FILLER_0_17_108
*895 FILLER_0_17_113
*896 FILLER_0_17_128
*897 FILLER_0_17_140
*898 FILLER_0_17_148
*899 FILLER_0_17_15
*900 FILLER_0_17_163
*901 FILLER_0_17_167
*902 FILLER_0_17_169
*903 FILLER_0_17_177
*904 FILLER_0_17_194
*905 FILLER_0_17_209
*906 FILLER_0_17_223
*907 FILLER_0_17_231
*908 FILLER_0_17_243
*909 FILLER_0_17_258
*910 FILLER_0_17_27
*911 FILLER_0_17_270
*912 FILLER_0_17_278
*913 FILLER_0_17_281
*914 FILLER_0_17_286
*915 FILLER_0_17_298
*916 FILLER_0_17_3
*917 FILLER_0_17_310
*918 FILLER_0_17_322
*919 FILLER_0_17_334
*920 FILLER_0_17_337
*921 FILLER_0_17_349
*922 FILLER_0_17_39
*923 FILLER_0_17_51
*924 FILLER_0_17_55
*925 FILLER_0_17_57
*926 FILLER_0_17_72
*927 FILLER_0_17_84
*928 FILLER_0_17_92
*929 FILLER_0_17_96
*930 FILLER_0_18_101
*931 FILLER_0_18_117
*932 FILLER_0_18_121
*933 FILLER_0_18_132
*934 FILLER_0_18_136
*935 FILLER_0_18_141
*936 FILLER_0_18_149
*937 FILLER_0_18_15
*938 FILLER_0_18_157
*939 FILLER_0_18_162
*940 FILLER_0_18_170
*941 FILLER_0_18_184
*942 FILLER_0_18_197
*943 FILLER_0_18_206
*944 FILLER_0_18_218
*945 FILLER_0_18_229
*946 FILLER_0_18_240
*947 FILLER_0_18_246
*948 FILLER_0_18_253
*949 FILLER_0_18_27
*950 FILLER_0_18_271
*951 FILLER_0_18_277
*952 FILLER_0_18_29
*953 FILLER_0_18_294
*954 FILLER_0_18_3
*955 FILLER_0_18_302
*956 FILLER_0_18_306
*957 FILLER_0_18_341
*958 FILLER_0_18_349
*959 FILLER_0_18_41
*960 FILLER_0_18_65
*961 FILLER_0_18_77
*962 FILLER_0_18_83
*963 FILLER_0_18_95
*964 FILLER_0_19_111
*965 FILLER_0_19_113
*966 FILLER_0_19_125
*967 FILLER_0_19_133
*968 FILLER_0_19_15
*969 FILLER_0_19_152
*970 FILLER_0_19_169
*971 FILLER_0_19_175
*972 FILLER_0_19_185
*973 FILLER_0_19_211
*974 FILLER_0_19_220
*975 FILLER_0_19_225
*976 FILLER_0_19_23
*977 FILLER_0_19_252
*978 FILLER_0_19_256
*979 FILLER_0_19_269
*980 FILLER_0_19_277
*981 FILLER_0_19_281
*982 FILLER_0_19_288
*983 FILLER_0_19_296
*984 FILLER_0_19_3
*985 FILLER_0_19_313
*986 FILLER_0_19_319
*987 FILLER_0_19_328
*988 FILLER_0_19_337
*989 FILLER_0_19_349
*990 FILLER_0_19_37
*991 FILLER_0_19_49
*992 FILLER_0_19_71
*993 FILLER_0_19_81
*994 FILLER_0_19_89
*995 FILLER_0_19_99
*996 FILLER_0_1_105
*997 FILLER_0_1_111
*998 FILLER_0_1_113
*999 FILLER_0_1_125
*1000 FILLER_0_1_137
*1001 FILLER_0_1_149
*1002 FILLER_0_1_15
*1003 FILLER_0_1_161
*1004 FILLER_0_1_167
*1005 FILLER_0_1_169
*1006 FILLER_0_1_181
*1007 FILLER_0_1_193
*1008 FILLER_0_1_205
*1009 FILLER_0_1_217
*1010 FILLER_0_1_223
*1011 FILLER_0_1_225
*1012 FILLER_0_1_237
*1013 FILLER_0_1_249
*1014 FILLER_0_1_261
*1015 FILLER_0_1_27
*1016 FILLER_0_1_273
*1017 FILLER_0_1_279
*1018 FILLER_0_1_281
*1019 FILLER_0_1_293
*1020 FILLER_0_1_3
*1021 FILLER_0_1_305
*1022 FILLER_0_1_317
*1023 FILLER_0_1_329
*1024 FILLER_0_1_335
*1025 FILLER_0_1_337
*1026 FILLER_0_1_349
*1027 FILLER_0_1_39
*1028 FILLER_0_1_51
*1029 FILLER_0_1_55
*1030 FILLER_0_1_57
*1031 FILLER_0_1_69
*1032 FILLER_0_1_81
*1033 FILLER_0_1_93
*1034 FILLER_0_20_100
*1035 FILLER_0_20_112
*1036 FILLER_0_20_123
*1037 FILLER_0_20_135
*1038 FILLER_0_20_139
*1039 FILLER_0_20_141
*1040 FILLER_0_20_15
*1041 FILLER_0_20_164
*1042 FILLER_0_20_176
*1043 FILLER_0_20_191
*1044 FILLER_0_20_195
*1045 FILLER_0_20_197
*1046 FILLER_0_20_209
*1047 FILLER_0_20_230
*1048 FILLER_0_20_242
*1049 FILLER_0_20_250
*1050 FILLER_0_20_262
*1051 FILLER_0_20_27
*1052 FILLER_0_20_279
*1053 FILLER_0_20_285
*1054 FILLER_0_20_29
*1055 FILLER_0_20_295
*1056 FILLER_0_20_3
*1057 FILLER_0_20_303
*1058 FILLER_0_20_309
*1059 FILLER_0_20_321
*1060 FILLER_0_20_37
*1061 FILLER_0_20_55
*1062 FILLER_0_20_67
*1063 FILLER_0_20_78
*1064 FILLER_0_20_85
*1065 FILLER_0_21_101
*1066 FILLER_0_21_109
*1067 FILLER_0_21_126
*1068 FILLER_0_21_148
*1069 FILLER_0_21_15
*1070 FILLER_0_21_165
*1071 FILLER_0_21_169
*1072 FILLER_0_21_177
*1073 FILLER_0_21_183
*1074 FILLER_0_21_221
*1075 FILLER_0_21_23
*1076 FILLER_0_21_232
*1077 FILLER_0_21_252
*1078 FILLER_0_21_264
*1079 FILLER_0_21_268
*1080 FILLER_0_21_274
*1081 FILLER_0_21_281
*1082 FILLER_0_21_287
*1083 FILLER_0_21_3
*1084 FILLER_0_21_323
*1085 FILLER_0_21_335
*1086 FILLER_0_21_337
*1087 FILLER_0_21_349
*1088 FILLER_0_21_37
*1089 FILLER_0_21_43
*1090 FILLER_0_21_51
*1091 FILLER_0_21_55
*1092 FILLER_0_21_57
*1093 FILLER_0_21_61
*1094 FILLER_0_21_65
*1095 FILLER_0_21_83
*1096 FILLER_0_22_107
*1097 FILLER_0_22_11
*1098 FILLER_0_22_113
*1099 FILLER_0_22_128
*1100 FILLER_0_22_141
*1101 FILLER_0_22_152
*1102 FILLER_0_22_158
*1103 FILLER_0_22_169
*1104 FILLER_0_22_17
*1105 FILLER_0_22_181
*1106 FILLER_0_22_188
*1107 FILLER_0_22_207
*1108 FILLER_0_22_225
*1109 FILLER_0_22_233
*1110 FILLER_0_22_238
*1111 FILLER_0_22_246
*1112 FILLER_0_22_25
*1113 FILLER_0_22_270
*1114 FILLER_0_22_296
*1115 FILLER_0_22_3
*1116 FILLER_0_22_309
*1117 FILLER_0_22_350
*1118 FILLER_0_22_38
*1119 FILLER_0_22_42
*1120 FILLER_0_22_56
*1121 FILLER_0_22_68
*1122 FILLER_0_22_76
*1123 FILLER_0_22_81
*1124 FILLER_0_22_85
*1125 FILLER_0_22_89
*1126 FILLER_0_23_111
*1127 FILLER_0_23_118
*1128 FILLER_0_23_122
*1129 FILLER_0_23_140
*1130 FILLER_0_23_144
*1131 FILLER_0_23_152
*1132 FILLER_0_23_161
*1133 FILLER_0_23_167
*1134 FILLER_0_23_169
*1135 FILLER_0_23_18
*1136 FILLER_0_23_185
*1137 FILLER_0_23_211
*1138 FILLER_0_23_222
*1139 FILLER_0_23_225
*1140 FILLER_0_23_246
*1141 FILLER_0_23_250
*1142 FILLER_0_23_270
*1143 FILLER_0_23_279
*1144 FILLER_0_23_293
*1145 FILLER_0_23_3
*1146 FILLER_0_23_321
*1147 FILLER_0_23_33
*1148 FILLER_0_23_345
*1149 FILLER_0_23_45
*1150 FILLER_0_23_52
*1151 FILLER_0_23_63
*1152 FILLER_0_23_71
*1153 FILLER_0_23_95
*1154 FILLER_0_24_107
*1155 FILLER_0_24_114
*1156 FILLER_0_24_122
*1157 FILLER_0_24_129
*1158 FILLER_0_24_137
*1159 FILLER_0_24_141
*1160 FILLER_0_24_153
*1161 FILLER_0_24_187
*1162 FILLER_0_24_197
*1163 FILLER_0_24_21
*1164 FILLER_0_24_228
*1165 FILLER_0_24_232
*1166 FILLER_0_24_253
*1167 FILLER_0_24_259
*1168 FILLER_0_24_27
*1169 FILLER_0_24_29
*1170 FILLER_0_24_296
*1171 FILLER_0_24_3
*1172 FILLER_0_24_309
*1173 FILLER_0_24_334
*1174 FILLER_0_24_40
*1175 FILLER_0_24_52
*1176 FILLER_0_24_66
*1177 FILLER_0_24_7
*1178 FILLER_0_24_78
*1179 FILLER_0_24_85
*1180 FILLER_0_24_97
*1181 FILLER_0_25_107
*1182 FILLER_0_25_111
*1183 FILLER_0_25_113
*1184 FILLER_0_25_14
*1185 FILLER_0_25_140
*1186 FILLER_0_25_146
*1187 FILLER_0_25_159
*1188 FILLER_0_25_167
*1189 FILLER_0_25_188
*1190 FILLER_0_25_196
*1191 FILLER_0_25_205
*1192 FILLER_0_25_217
*1193 FILLER_0_25_223
*1194 FILLER_0_25_225
*1195 FILLER_0_25_236
*1196 FILLER_0_25_240
*1197 FILLER_0_25_244
*1198 FILLER_0_25_256
*1199 FILLER_0_25_26
*1200 FILLER_0_25_262
*1201 FILLER_0_25_266
*1202 FILLER_0_25_273
*1203 FILLER_0_25_279
*1204 FILLER_0_25_281
*1205 FILLER_0_25_293
*1206 FILLER_0_25_299
*1207 FILLER_0_25_3
*1208 FILLER_0_25_311
*1209 FILLER_0_25_319
*1210 FILLER_0_25_324
*1211 FILLER_0_25_337
*1212 FILLER_0_25_349
*1213 FILLER_0_25_42
*1214 FILLER_0_25_53
*1215 FILLER_0_25_63
*1216 FILLER_0_25_75
*1217 FILLER_0_25_92
*1218 FILLER_0_26_104
*1219 FILLER_0_26_108
*1220 FILLER_0_26_119
*1221 FILLER_0_26_131
*1222 FILLER_0_26_139
*1223 FILLER_0_26_141
*1224 FILLER_0_26_151
*1225 FILLER_0_26_158
*1226 FILLER_0_26_16
*1227 FILLER_0_26_170
*1228 FILLER_0_26_175
*1229 FILLER_0_26_183
*1230 FILLER_0_26_192
*1231 FILLER_0_26_197
*1232 FILLER_0_26_201
*1233 FILLER_0_26_231
*1234 FILLER_0_26_253
*1235 FILLER_0_26_273
*1236 FILLER_0_26_284
*1237 FILLER_0_26_29
*1238 FILLER_0_26_3
*1239 FILLER_0_26_309
*1240 FILLER_0_26_320
*1241 FILLER_0_26_340
*1242 FILLER_0_26_348
*1243 FILLER_0_26_45
*1244 FILLER_0_26_57
*1245 FILLER_0_26_92
*1246 FILLER_0_27_106
*1247 FILLER_0_27_11
*1248 FILLER_0_27_113
*1249 FILLER_0_27_125
*1250 FILLER_0_27_136
*1251 FILLER_0_27_143
*1252 FILLER_0_27_147
*1253 FILLER_0_27_151
*1254 FILLER_0_27_159
*1255 FILLER_0_27_19
*1256 FILLER_0_27_202
*1257 FILLER_0_27_214
*1258 FILLER_0_27_222
*1259 FILLER_0_27_225
*1260 FILLER_0_27_237
*1261 FILLER_0_27_257
*1262 FILLER_0_27_270
*1263 FILLER_0_27_278
*1264 FILLER_0_27_293
*1265 FILLER_0_27_3
*1266 FILLER_0_27_305
*1267 FILLER_0_27_313
*1268 FILLER_0_27_326
*1269 FILLER_0_27_334
*1270 FILLER_0_27_337
*1271 FILLER_0_27_349
*1272 FILLER_0_27_36
*1273 FILLER_0_27_44
*1274 FILLER_0_27_48
*1275 FILLER_0_27_57
*1276 FILLER_0_27_61
*1277 FILLER_0_27_66
*1278 FILLER_0_27_78
*1279 FILLER_0_27_82
*1280 FILLER_0_27_94
*1281 FILLER_0_28_124
*1282 FILLER_0_28_137
*1283 FILLER_0_28_141
*1284 FILLER_0_28_149
*1285 FILLER_0_28_178
*1286 FILLER_0_28_186
*1287 FILLER_0_28_197
*1288 FILLER_0_28_205
*1289 FILLER_0_28_215
*1290 FILLER_0_28_238
*1291 FILLER_0_28_244
*1292 FILLER_0_28_248
*1293 FILLER_0_28_27
*1294 FILLER_0_28_29
*1295 FILLER_0_28_3
*1296 FILLER_0_28_305
*1297 FILLER_0_28_316
*1298 FILLER_0_28_324
*1299 FILLER_0_28_35
*1300 FILLER_0_28_53
*1301 FILLER_0_28_67
*1302 FILLER_0_28_79
*1303 FILLER_0_28_83
*1304 FILLER_0_29_111
*1305 FILLER_0_29_113
*1306 FILLER_0_29_121
*1307 FILLER_0_29_125
*1308 FILLER_0_29_13
*1309 FILLER_0_29_137
*1310 FILLER_0_29_147
*1311 FILLER_0_29_159
*1312 FILLER_0_29_167
*1313 FILLER_0_29_169
*1314 FILLER_0_29_173
*1315 FILLER_0_29_180
*1316 FILLER_0_29_188
*1317 FILLER_0_29_194
*1318 FILLER_0_29_198
*1319 FILLER_0_29_221
*1320 FILLER_0_29_225
*1321 FILLER_0_29_237
*1322 FILLER_0_29_245
*1323 FILLER_0_29_25
*1324 FILLER_0_29_251
*1325 FILLER_0_29_264
*1326 FILLER_0_29_270
*1327 FILLER_0_29_274
*1328 FILLER_0_29_281
*1329 FILLER_0_29_289
*1330 FILLER_0_29_3
*1331 FILLER_0_29_316
*1332 FILLER_0_29_320
*1333 FILLER_0_29_33
*1334 FILLER_0_29_335
*1335 FILLER_0_29_345
*1336 FILLER_0_29_42
*1337 FILLER_0_29_54
*1338 FILLER_0_29_67
*1339 FILLER_0_29_71
*1340 FILLER_0_29_87
*1341 FILLER_0_29_99
*1342 FILLER_0_2_109
*1343 FILLER_0_2_121
*1344 FILLER_0_2_133
*1345 FILLER_0_2_139
*1346 FILLER_0_2_141
*1347 FILLER_0_2_15
*1348 FILLER_0_2_153
*1349 FILLER_0_2_165
*1350 FILLER_0_2_177
*1351 FILLER_0_2_189
*1352 FILLER_0_2_195
*1353 FILLER_0_2_197
*1354 FILLER_0_2_209
*1355 FILLER_0_2_221
*1356 FILLER_0_2_233
*1357 FILLER_0_2_245
*1358 FILLER_0_2_251
*1359 FILLER_0_2_253
*1360 FILLER_0_2_265
*1361 FILLER_0_2_27
*1362 FILLER_0_2_277
*1363 FILLER_0_2_289
*1364 FILLER_0_2_29
*1365 FILLER_0_2_3
*1366 FILLER_0_2_301
*1367 FILLER_0_2_307
*1368 FILLER_0_2_309
*1369 FILLER_0_2_321
*1370 FILLER_0_2_333
*1371 FILLER_0_2_345
*1372 FILLER_0_2_41
*1373 FILLER_0_2_53
*1374 FILLER_0_2_65
*1375 FILLER_0_2_77
*1376 FILLER_0_2_83
*1377 FILLER_0_2_85
*1378 FILLER_0_2_97
*1379 FILLER_0_30_113
*1380 FILLER_0_30_117
*1381 FILLER_0_30_128
*1382 FILLER_0_30_138
*1383 FILLER_0_30_15
*1384 FILLER_0_30_156
*1385 FILLER_0_30_177
*1386 FILLER_0_30_189
*1387 FILLER_0_30_195
*1388 FILLER_0_30_202
*1389 FILLER_0_30_208
*1390 FILLER_0_30_220
*1391 FILLER_0_30_240
*1392 FILLER_0_30_244
*1393 FILLER_0_30_250
*1394 FILLER_0_30_265
*1395 FILLER_0_30_277
*1396 FILLER_0_30_289
*1397 FILLER_0_30_29
*1398 FILLER_0_30_3
*1399 FILLER_0_30_306
*1400 FILLER_0_30_309
*1401 FILLER_0_30_33
*1402 FILLER_0_30_330
*1403 FILLER_0_30_334
*1404 FILLER_0_30_44
*1405 FILLER_0_30_67
*1406 FILLER_0_30_79
*1407 FILLER_0_30_83
*1408 FILLER_0_30_95
*1409 FILLER_0_31_101
*1410 FILLER_0_31_109
*1411 FILLER_0_31_113
*1412 FILLER_0_31_117
*1413 FILLER_0_31_129
*1414 FILLER_0_31_137
*1415 FILLER_0_31_147
*1416 FILLER_0_31_15
*1417 FILLER_0_31_159
*1418 FILLER_0_31_177
*1419 FILLER_0_31_186
*1420 FILLER_0_31_223
*1421 FILLER_0_31_23
*1422 FILLER_0_31_242
*1423 FILLER_0_31_248
*1424 FILLER_0_31_265
*1425 FILLER_0_31_271
*1426 FILLER_0_31_29
*1427 FILLER_0_31_297
*1428 FILLER_0_31_3
*1429 FILLER_0_31_303
*1430 FILLER_0_31_309
*1431 FILLER_0_31_317
*1432 FILLER_0_31_325
*1433 FILLER_0_31_335
*1434 FILLER_0_31_345
*1435 FILLER_0_31_39
*1436 FILLER_0_31_54
*1437 FILLER_0_31_57
*1438 FILLER_0_31_63
*1439 FILLER_0_31_78
*1440 FILLER_0_31_89
*1441 FILLER_0_32_109
*1442 FILLER_0_32_121
*1443 FILLER_0_32_129
*1444 FILLER_0_32_151
*1445 FILLER_0_32_161
*1446 FILLER_0_32_173
*1447 FILLER_0_32_181
*1448 FILLER_0_32_189
*1449 FILLER_0_32_19
*1450 FILLER_0_32_195
*1451 FILLER_0_32_203
*1452 FILLER_0_32_211
*1453 FILLER_0_32_216
*1454 FILLER_0_32_244
*1455 FILLER_0_32_256
*1456 FILLER_0_32_268
*1457 FILLER_0_32_280
*1458 FILLER_0_32_286
*1459 FILLER_0_32_3
*1460 FILLER_0_32_306
*1461 FILLER_0_32_309
*1462 FILLER_0_32_327
*1463 FILLER_0_32_42
*1464 FILLER_0_32_46
*1465 FILLER_0_32_57
*1466 FILLER_0_32_72
*1467 FILLER_0_32_83
*1468 FILLER_0_32_85
*1469 FILLER_0_32_91
*1470 FILLER_0_32_97
*1471 FILLER_0_33_110
*1472 FILLER_0_33_113
*1473 FILLER_0_33_132
*1474 FILLER_0_33_140
*1475 FILLER_0_33_15
*1476 FILLER_0_33_166
*1477 FILLER_0_33_169
*1478 FILLER_0_33_177
*1479 FILLER_0_33_186
*1480 FILLER_0_33_194
*1481 FILLER_0_33_207
*1482 FILLER_0_33_222
*1483 FILLER_0_33_231
*1484 FILLER_0_33_243
*1485 FILLER_0_33_278
*1486 FILLER_0_33_297
*1487 FILLER_0_33_3
*1488 FILLER_0_33_306
*1489 FILLER_0_33_311
*1490 FILLER_0_33_323
*1491 FILLER_0_33_335
*1492 FILLER_0_33_34
*1493 FILLER_0_33_340
*1494 FILLER_0_33_349
*1495 FILLER_0_33_46
*1496 FILLER_0_33_54
*1497 FILLER_0_33_57
*1498 FILLER_0_33_72
*1499 FILLER_0_33_78
*1500 FILLER_0_33_91
*1501 FILLER_0_34_100
*1502 FILLER_0_34_109
*1503 FILLER_0_34_121
*1504 FILLER_0_34_126
*1505 FILLER_0_34_138
*1506 FILLER_0_34_141
*1507 FILLER_0_34_15
*1508 FILLER_0_34_163
*1509 FILLER_0_34_171
*1510 FILLER_0_34_191
*1511 FILLER_0_34_197
*1512 FILLER_0_34_221
*1513 FILLER_0_34_225
*1514 FILLER_0_34_229
*1515 FILLER_0_34_241
*1516 FILLER_0_34_248
*1517 FILLER_0_34_253
*1518 FILLER_0_34_259
*1519 FILLER_0_34_27
*1520 FILLER_0_34_271
*1521 FILLER_0_34_288
*1522 FILLER_0_34_296
*1523 FILLER_0_34_3
*1524 FILLER_0_34_307
*1525 FILLER_0_34_309
*1526 FILLER_0_34_317
*1527 FILLER_0_34_56
*1528 FILLER_0_34_72
*1529 FILLER_0_34_92
*1530 FILLER_0_35_110
*1531 FILLER_0_35_113
*1532 FILLER_0_35_15
*1533 FILLER_0_35_152
*1534 FILLER_0_35_169
*1535 FILLER_0_35_177
*1536 FILLER_0_35_181
*1537 FILLER_0_35_187
*1538 FILLER_0_35_195
*1539 FILLER_0_35_204
*1540 FILLER_0_35_210
*1541 FILLER_0_35_219
*1542 FILLER_0_35_223
*1543 FILLER_0_35_225
*1544 FILLER_0_35_267
*1545 FILLER_0_35_27
*1546 FILLER_0_35_279
*1547 FILLER_0_35_297
*1548 FILLER_0_35_3
*1549 FILLER_0_35_316
*1550 FILLER_0_35_337
*1551 FILLER_0_35_349
*1552 FILLER_0_35_39
*1553 FILLER_0_35_51
*1554 FILLER_0_35_55
*1555 FILLER_0_35_71
*1556 FILLER_0_35_83
*1557 FILLER_0_35_95
*1558 FILLER_0_36_103
*1559 FILLER_0_36_116
*1560 FILLER_0_36_128
*1561 FILLER_0_36_141
*1562 FILLER_0_36_15
*1563 FILLER_0_36_153
*1564 FILLER_0_36_157
*1565 FILLER_0_36_162
*1566 FILLER_0_36_174
*1567 FILLER_0_36_197
*1568 FILLER_0_36_205
*1569 FILLER_0_36_211
*1570 FILLER_0_36_223
*1571 FILLER_0_36_227
*1572 FILLER_0_36_231
*1573 FILLER_0_36_236
*1574 FILLER_0_36_241
*1575 FILLER_0_36_250
*1576 FILLER_0_36_253
*1577 FILLER_0_36_259
*1578 FILLER_0_36_263
*1579 FILLER_0_36_27
*1580 FILLER_0_36_271
*1581 FILLER_0_36_285
*1582 FILLER_0_36_29
*1583 FILLER_0_36_293
*1584 FILLER_0_36_297
*1585 FILLER_0_36_3
*1586 FILLER_0_36_307
*1587 FILLER_0_36_309
*1588 FILLER_0_36_328
*1589 FILLER_0_36_334
*1590 FILLER_0_36_41
*1591 FILLER_0_36_53
*1592 FILLER_0_36_65
*1593 FILLER_0_36_69
*1594 FILLER_0_36_82
*1595 FILLER_0_36_91
*1596 FILLER_0_37_103
*1597 FILLER_0_37_111
*1598 FILLER_0_37_113
*1599 FILLER_0_37_129
*1600 FILLER_0_37_15
*1601 FILLER_0_37_151
*1602 FILLER_0_37_163
*1603 FILLER_0_37_176
*1604 FILLER_0_37_182
*1605 FILLER_0_37_209
*1606 FILLER_0_37_221
*1607 FILLER_0_37_225
*1608 FILLER_0_37_237
*1609 FILLER_0_37_27
*1610 FILLER_0_37_279
*1611 FILLER_0_37_3
*1612 FILLER_0_37_340
*1613 FILLER_0_37_348
*1614 FILLER_0_37_39
*1615 FILLER_0_37_51
*1616 FILLER_0_37_55
*1617 FILLER_0_37_57
*1618 FILLER_0_37_69
*1619 FILLER_0_37_91