*SPEF "ieee 1481-1999"
*DESIGN "tt_um_hls_lfi"
*DATE "11:11:11 Fri 11 11, 1111"
*VENDOR "OpenRCX"
*PROGRAM "Parallel Extraction"
*VERSION "1.0"
*DESIGN_FLOW "NAME_SCOPE LOCAL" "PIN_CAP NONE"
*DIVIDER /
*DELIMITER :
*BUS_DELIMITER []
*T_UNIT 1 NS
*C_UNIT 1 PF
*R_UNIT 1 OHM
*L_UNIT 1 HENRY

*NAME_MAP
*3 clk
*4 ena
*5 rst_n
*6 ui_in[0]
*7 ui_in[1]
*8 ui_in[2]
*9 ui_in[3]
*10 ui_in[4]
*11 ui_in[5]
*12 ui_in[6]
*13 ui_in[7]
*14 uio_in[0]
*15 uio_in[1]
*16 uio_in[2]
*17 uio_in[3]
*18 uio_in[4]
*19 uio_in[5]
*20 uio_in[6]
*21 uio_in[7]
*22 net17
*23 net18
*24 net19
*25 net20
*26 net21
*27 net22
*28 net23
*29 net24
*30 net10
*31 net11
*32 net12
*33 net13
*34 net14
*35 net15
*36 net16
*37 uio_out[7]
*38 uo_out[0]
*39 uo_out[1]
*40 uo_out[2]
*41 uo_out[3]
*42 uo_out[4]
*43 uo_out[5]
*44 uo_out[6]
*45 uo_out[7]
*46 Lfi1\.spike_o
*47 Lfi1\.u_w\[0\]
*48 Lfi1\.u_w\[1\]
*49 Lfi1\.u_w\[2\]
*50 Lfi1\.u_w\[3\]
*51 Lfi1\.u_w\[4\]
*52 Lfi1\.u_w\[5\]
*53 Lfi1\.u_w\[6\]
*54 Lfi1\.u_w\[7\]
*55 _000_
*56 _001_
*57 _002_
*58 _003_
*59 _004_
*60 _005_
*61 _006_
*62 _007_
*63 _008_
*64 _009_
*65 _010_
*66 _011_
*67 _012_
*68 _013_
*69 _014_
*70 _015_
*71 _016_
*72 _017_
*73 _018_
*74 _019_
*75 _020_
*76 _021_
*77 _022_
*78 _023_
*79 _024_
*80 _025_
*81 _026_
*82 _027_
*83 _028_
*84 _029_
*85 _030_
*86 _031_
*87 _032_
*88 _033_
*89 _034_
*90 _035_
*91 _036_
*92 _037_
*93 _038_
*94 _039_
*95 _040_
*96 _041_
*97 _042_
*98 _043_
*99 _044_
*100 _045_
*101 _046_
*102 _047_
*103 _048_
*104 _049_
*105 _050_
*106 _051_
*107 _052_
*108 clknet_0_clk
*109 clknet_1_0__leaf_clk
*110 clknet_1_1__leaf_clk
*111 net1
*112 net2
*113 net3
*114 net4
*115 net5
*116 net6
*117 net7
*118 net8
*119 net9
*120 FILLER_0_0_109
*121 FILLER_0_0_113
*122 FILLER_0_0_125
*123 FILLER_0_0_137
*124 FILLER_0_0_141
*125 FILLER_0_0_15
*126 FILLER_0_0_153
*127 FILLER_0_0_165
*128 FILLER_0_0_169
*129 FILLER_0_0_181
*130 FILLER_0_0_193
*131 FILLER_0_0_197
*132 FILLER_0_0_209
*133 FILLER_0_0_221
*134 FILLER_0_0_225
*135 FILLER_0_0_237
*136 FILLER_0_0_249
*137 FILLER_0_0_253
*138 FILLER_0_0_265
*139 FILLER_0_0_27
*140 FILLER_0_0_277
*141 FILLER_0_0_281
*142 FILLER_0_0_29
*143 FILLER_0_0_293
*144 FILLER_0_0_3
*145 FILLER_0_0_305
*146 FILLER_0_0_309
*147 FILLER_0_0_321
*148 FILLER_0_0_333
*149 FILLER_0_0_337
*150 FILLER_0_0_349
*151 FILLER_0_0_41
*152 FILLER_0_0_53
*153 FILLER_0_0_57
*154 FILLER_0_0_69
*155 FILLER_0_0_81
*156 FILLER_0_0_85
*157 FILLER_0_0_97
*158 FILLER_0_10_109
*159 FILLER_0_10_121
*160 FILLER_0_10_133
*161 FILLER_0_10_139
*162 FILLER_0_10_141
*163 FILLER_0_10_15
*164 FILLER_0_10_153
*165 FILLER_0_10_165
*166 FILLER_0_10_177
*167 FILLER_0_10_189
*168 FILLER_0_10_195
*169 FILLER_0_10_197
*170 FILLER_0_10_209
*171 FILLER_0_10_221
*172 FILLER_0_10_233
*173 FILLER_0_10_245
*174 FILLER_0_10_251
*175 FILLER_0_10_253
*176 FILLER_0_10_265
*177 FILLER_0_10_27
*178 FILLER_0_10_277
*179 FILLER_0_10_289
*180 FILLER_0_10_29
*181 FILLER_0_10_3
*182 FILLER_0_10_301
*183 FILLER_0_10_307
*184 FILLER_0_10_309
*185 FILLER_0_10_321
*186 FILLER_0_10_333
*187 FILLER_0_10_345
*188 FILLER_0_10_41
*189 FILLER_0_10_53
*190 FILLER_0_10_65
*191 FILLER_0_10_77
*192 FILLER_0_10_83
*193 FILLER_0_10_85
*194 FILLER_0_10_97
*195 FILLER_0_11_105
*196 FILLER_0_11_111
*197 FILLER_0_11_113
*198 FILLER_0_11_125
*199 FILLER_0_11_137
*200 FILLER_0_11_149
*201 FILLER_0_11_15
*202 FILLER_0_11_161
*203 FILLER_0_11_167
*204 FILLER_0_11_169
*205 FILLER_0_11_181
*206 FILLER_0_11_193
*207 FILLER_0_11_205
*208 FILLER_0_11_217
*209 FILLER_0_11_223
*210 FILLER_0_11_225
*211 FILLER_0_11_237
*212 FILLER_0_11_249
*213 FILLER_0_11_261
*214 FILLER_0_11_27
*215 FILLER_0_11_273
*216 FILLER_0_11_279
*217 FILLER_0_11_281
*218 FILLER_0_11_293
*219 FILLER_0_11_3
*220 FILLER_0_11_305
*221 FILLER_0_11_317
*222 FILLER_0_11_329
*223 FILLER_0_11_335
*224 FILLER_0_11_337
*225 FILLER_0_11_349
*226 FILLER_0_11_39
*227 FILLER_0_11_51
*228 FILLER_0_11_55
*229 FILLER_0_11_57
*230 FILLER_0_11_69
*231 FILLER_0_11_81
*232 FILLER_0_11_93
*233 FILLER_0_12_109
*234 FILLER_0_12_121
*235 FILLER_0_12_133
*236 FILLER_0_12_139
*237 FILLER_0_12_141
*238 FILLER_0_12_15
*239 FILLER_0_12_153
*240 FILLER_0_12_165
*241 FILLER_0_12_177
*242 FILLER_0_12_189
*243 FILLER_0_12_195
*244 FILLER_0_12_197
*245 FILLER_0_12_209
*246 FILLER_0_12_221
*247 FILLER_0_12_233
*248 FILLER_0_12_245
*249 FILLER_0_12_251
*250 FILLER_0_12_253
*251 FILLER_0_12_265
*252 FILLER_0_12_27
*253 FILLER_0_12_277
*254 FILLER_0_12_289
*255 FILLER_0_12_29
*256 FILLER_0_12_3
*257 FILLER_0_12_301
*258 FILLER_0_12_307
*259 FILLER_0_12_309
*260 FILLER_0_12_321
*261 FILLER_0_12_333
*262 FILLER_0_12_345
*263 FILLER_0_12_41
*264 FILLER_0_12_53
*265 FILLER_0_12_65
*266 FILLER_0_12_77
*267 FILLER_0_12_83
*268 FILLER_0_12_85
*269 FILLER_0_12_97
*270 FILLER_0_13_105
*271 FILLER_0_13_111
*272 FILLER_0_13_113
*273 FILLER_0_13_125
*274 FILLER_0_13_137
*275 FILLER_0_13_149
*276 FILLER_0_13_15
*277 FILLER_0_13_161
*278 FILLER_0_13_167
*279 FILLER_0_13_169
*280 FILLER_0_13_181
*281 FILLER_0_13_193
*282 FILLER_0_13_205
*283 FILLER_0_13_217
*284 FILLER_0_13_223
*285 FILLER_0_13_225
*286 FILLER_0_13_237
*287 FILLER_0_13_249
*288 FILLER_0_13_261
*289 FILLER_0_13_27
*290 FILLER_0_13_273
*291 FILLER_0_13_279
*292 FILLER_0_13_281
*293 FILLER_0_13_293
*294 FILLER_0_13_3
*295 FILLER_0_13_305
*296 FILLER_0_13_317
*297 FILLER_0_13_329
*298 FILLER_0_13_335
*299 FILLER_0_13_337
*300 FILLER_0_13_349
*301 FILLER_0_13_39
*302 FILLER_0_13_51
*303 FILLER_0_13_55
*304 FILLER_0_13_57
*305 FILLER_0_13_69
*306 FILLER_0_13_81
*307 FILLER_0_13_93
*308 FILLER_0_14_109
*309 FILLER_0_14_121
*310 FILLER_0_14_133
*311 FILLER_0_14_139
*312 FILLER_0_14_141
*313 FILLER_0_14_15
*314 FILLER_0_14_153
*315 FILLER_0_14_165
*316 FILLER_0_14_177
*317 FILLER_0_14_189
*318 FILLER_0_14_195
*319 FILLER_0_14_197
*320 FILLER_0_14_209
*321 FILLER_0_14_221
*322 FILLER_0_14_233
*323 FILLER_0_14_245
*324 FILLER_0_14_251
*325 FILLER_0_14_253
*326 FILLER_0_14_265
*327 FILLER_0_14_27
*328 FILLER_0_14_277
*329 FILLER_0_14_289
*330 FILLER_0_14_29
*331 FILLER_0_14_3
*332 FILLER_0_14_301
*333 FILLER_0_14_307
*334 FILLER_0_14_309
*335 FILLER_0_14_321
*336 FILLER_0_14_333
*337 FILLER_0_14_345
*338 FILLER_0_14_41
*339 FILLER_0_14_53
*340 FILLER_0_14_65
*341 FILLER_0_14_77
*342 FILLER_0_14_83
*343 FILLER_0_14_85
*344 FILLER_0_14_97
*345 FILLER_0_15_105
*346 FILLER_0_15_111
*347 FILLER_0_15_113
*348 FILLER_0_15_125
*349 FILLER_0_15_137
*350 FILLER_0_15_149
*351 FILLER_0_15_15
*352 FILLER_0_15_161
*353 FILLER_0_15_167
*354 FILLER_0_15_169
*355 FILLER_0_15_181
*356 FILLER_0_15_193
*357 FILLER_0_15_205
*358 FILLER_0_15_217
*359 FILLER_0_15_223
*360 FILLER_0_15_225
*361 FILLER_0_15_237
*362 FILLER_0_15_249
*363 FILLER_0_15_261
*364 FILLER_0_15_27
*365 FILLER_0_15_273
*366 FILLER_0_15_279
*367 FILLER_0_15_281
*368 FILLER_0_15_293
*369 FILLER_0_15_3
*370 FILLER_0_15_305
*371 FILLER_0_15_317
*372 FILLER_0_15_329
*373 FILLER_0_15_335
*374 FILLER_0_15_337
*375 FILLER_0_15_349
*376 FILLER_0_15_39
*377 FILLER_0_15_51
*378 FILLER_0_15_55
*379 FILLER_0_15_57
*380 FILLER_0_15_69
*381 FILLER_0_15_81
*382 FILLER_0_15_93
*383 FILLER_0_16_109
*384 FILLER_0_16_121
*385 FILLER_0_16_133
*386 FILLER_0_16_139
*387 FILLER_0_16_141
*388 FILLER_0_16_15
*389 FILLER_0_16_153
*390 FILLER_0_16_165
*391 FILLER_0_16_177
*392 FILLER_0_16_189
*393 FILLER_0_16_195
*394 FILLER_0_16_197
*395 FILLER_0_16_209
*396 FILLER_0_16_221
*397 FILLER_0_16_233
*398 FILLER_0_16_245
*399 FILLER_0_16_251
*400 FILLER_0_16_253
*401 FILLER_0_16_265
*402 FILLER_0_16_27
*403 FILLER_0_16_277
*404 FILLER_0_16_289
*405 FILLER_0_16_29
*406 FILLER_0_16_3
*407 FILLER_0_16_301
*408 FILLER_0_16_307
*409 FILLER_0_16_309
*410 FILLER_0_16_321
*411 FILLER_0_16_333
*412 FILLER_0_16_345
*413 FILLER_0_16_41
*414 FILLER_0_16_53
*415 FILLER_0_16_65
*416 FILLER_0_16_77
*417 FILLER_0_16_83
*418 FILLER_0_16_85
*419 FILLER_0_16_97
*420 FILLER_0_17_105
*421 FILLER_0_17_111
*422 FILLER_0_17_113
*423 FILLER_0_17_125
*424 FILLER_0_17_137
*425 FILLER_0_17_149
*426 FILLER_0_17_15
*427 FILLER_0_17_161
*428 FILLER_0_17_167
*429 FILLER_0_17_169
*430 FILLER_0_17_181
*431 FILLER_0_17_193
*432 FILLER_0_17_205
*433 FILLER_0_17_217
*434 FILLER_0_17_223
*435 FILLER_0_17_225
*436 FILLER_0_17_237
*437 FILLER_0_17_249
*438 FILLER_0_17_261
*439 FILLER_0_17_27
*440 FILLER_0_17_273
*441 FILLER_0_17_279
*442 FILLER_0_17_281
*443 FILLER_0_17_293
*444 FILLER_0_17_3
*445 FILLER_0_17_305
*446 FILLER_0_17_317
*447 FILLER_0_17_329
*448 FILLER_0_17_335
*449 FILLER_0_17_337
*450 FILLER_0_17_349
*451 FILLER_0_17_39
*452 FILLER_0_17_51
*453 FILLER_0_17_55
*454 FILLER_0_17_57
*455 FILLER_0_17_69
*456 FILLER_0_17_81
*457 FILLER_0_17_93
*458 FILLER_0_18_109
*459 FILLER_0_18_121
*460 FILLER_0_18_133
*461 FILLER_0_18_139
*462 FILLER_0_18_141
*463 FILLER_0_18_15
*464 FILLER_0_18_153
*465 FILLER_0_18_165
*466 FILLER_0_18_177
*467 FILLER_0_18_189
*468 FILLER_0_18_195
*469 FILLER_0_18_197
*470 FILLER_0_18_209
*471 FILLER_0_18_221
*472 FILLER_0_18_233
*473 FILLER_0_18_245
*474 FILLER_0_18_251
*475 FILLER_0_18_253
*476 FILLER_0_18_265
*477 FILLER_0_18_27
*478 FILLER_0_18_277
*479 FILLER_0_18_289
*480 FILLER_0_18_29
*481 FILLER_0_18_3
*482 FILLER_0_18_301
*483 FILLER_0_18_307
*484 FILLER_0_18_309
*485 FILLER_0_18_321
*486 FILLER_0_18_333
*487 FILLER_0_18_345
*488 FILLER_0_18_41
*489 FILLER_0_18_53
*490 FILLER_0_18_65
*491 FILLER_0_18_77
*492 FILLER_0_18_83
*493 FILLER_0_18_85
*494 FILLER_0_18_97
*495 FILLER_0_19_105
*496 FILLER_0_19_111
*497 FILLER_0_19_113
*498 FILLER_0_19_125
*499 FILLER_0_19_137
*500 FILLER_0_19_149
*501 FILLER_0_19_15
*502 FILLER_0_19_161
*503 FILLER_0_19_167
*504 FILLER_0_19_169
*505 FILLER_0_19_181
*506 FILLER_0_19_193
*507 FILLER_0_19_205
*508 FILLER_0_19_217
*509 FILLER_0_19_223
*510 FILLER_0_19_225
*511 FILLER_0_19_237
*512 FILLER_0_19_249
*513 FILLER_0_19_261
*514 FILLER_0_19_27
*515 FILLER_0_19_273
*516 FILLER_0_19_279
*517 FILLER_0_19_281
*518 FILLER_0_19_293
*519 FILLER_0_19_3
*520 FILLER_0_19_305
*521 FILLER_0_19_317
*522 FILLER_0_19_329
*523 FILLER_0_19_335
*524 FILLER_0_19_337
*525 FILLER_0_19_349
*526 FILLER_0_19_39
*527 FILLER_0_19_51
*528 FILLER_0_19_55
*529 FILLER_0_19_57
*530 FILLER_0_19_69
*531 FILLER_0_19_81
*532 FILLER_0_19_93
*533 FILLER_0_1_105
*534 FILLER_0_1_111
*535 FILLER_0_1_113
*536 FILLER_0_1_125
*537 FILLER_0_1_137
*538 FILLER_0_1_149
*539 FILLER_0_1_15
*540 FILLER_0_1_161
*541 FILLER_0_1_167
*542 FILLER_0_1_169
*543 FILLER_0_1_181
*544 FILLER_0_1_193
*545 FILLER_0_1_205
*546 FILLER_0_1_217
*547 FILLER_0_1_223
*548 FILLER_0_1_225
*549 FILLER_0_1_237
*550 FILLER_0_1_249
*551 FILLER_0_1_261
*552 FILLER_0_1_27
*553 FILLER_0_1_273
*554 FILLER_0_1_279
*555 FILLER_0_1_281
*556 FILLER_0_1_293
*557 FILLER_0_1_3
*558 FILLER_0_1_305
*559 FILLER_0_1_317
*560 FILLER_0_1_329
*561 FILLER_0_1_335
*562 FILLER_0_1_337
*563 FILLER_0_1_349
*564 FILLER_0_1_39
*565 FILLER_0_1_51
*566 FILLER_0_1_55
*567 FILLER_0_1_57
*568 FILLER_0_1_69
*569 FILLER_0_1_81
*570 FILLER_0_1_93
*571 FILLER_0_20_109
*572 FILLER_0_20_121
*573 FILLER_0_20_133
*574 FILLER_0_20_139
*575 FILLER_0_20_141
*576 FILLER_0_20_15
*577 FILLER_0_20_153
*578 FILLER_0_20_165
*579 FILLER_0_20_177
*580 FILLER_0_20_189
*581 FILLER_0_20_195
*582 FILLER_0_20_197
*583 FILLER_0_20_209
*584 FILLER_0_20_221
*585 FILLER_0_20_233
*586 FILLER_0_20_245
*587 FILLER_0_20_251
*588 FILLER_0_20_253
*589 FILLER_0_20_265
*590 FILLER_0_20_27
*591 FILLER_0_20_277
*592 FILLER_0_20_289
*593 FILLER_0_20_29
*594 FILLER_0_20_3
*595 FILLER_0_20_301
*596 FILLER_0_20_307
*597 FILLER_0_20_309
*598 FILLER_0_20_321
*599 FILLER_0_20_333
*600 FILLER_0_20_345
*601 FILLER_0_20_41
*602 FILLER_0_20_53
*603 FILLER_0_20_65
*604 FILLER_0_20_77
*605 FILLER_0_20_83
*606 FILLER_0_20_85
*607 FILLER_0_20_97
*608 FILLER_0_21_105
*609 FILLER_0_21_111
*610 FILLER_0_21_113
*611 FILLER_0_21_125
*612 FILLER_0_21_137
*613 FILLER_0_21_149
*614 FILLER_0_21_15
*615 FILLER_0_21_161
*616 FILLER_0_21_167
*617 FILLER_0_21_169
*618 FILLER_0_21_181
*619 FILLER_0_21_193
*620 FILLER_0_21_205
*621 FILLER_0_21_217
*622 FILLER_0_21_223
*623 FILLER_0_21_225
*624 FILLER_0_21_237
*625 FILLER_0_21_249
*626 FILLER_0_21_261
*627 FILLER_0_21_27
*628 FILLER_0_21_273
*629 FILLER_0_21_279
*630 FILLER_0_21_281
*631 FILLER_0_21_293
*632 FILLER_0_21_3
*633 FILLER_0_21_305
*634 FILLER_0_21_317
*635 FILLER_0_21_329
*636 FILLER_0_21_335
*637 FILLER_0_21_337
*638 FILLER_0_21_349
*639 FILLER_0_21_39
*640 FILLER_0_21_51
*641 FILLER_0_21_55
*642 FILLER_0_21_57
*643 FILLER_0_21_69
*644 FILLER_0_21_81
*645 FILLER_0_21_93
*646 FILLER_0_22_109
*647 FILLER_0_22_121
*648 FILLER_0_22_133
*649 FILLER_0_22_139
*650 FILLER_0_22_141
*651 FILLER_0_22_15
*652 FILLER_0_22_153
*653 FILLER_0_22_165
*654 FILLER_0_22_177
*655 FILLER_0_22_189
*656 FILLER_0_22_195
*657 FILLER_0_22_197
*658 FILLER_0_22_209
*659 FILLER_0_22_221
*660 FILLER_0_22_233
*661 FILLER_0_22_245
*662 FILLER_0_22_251
*663 FILLER_0_22_253
*664 FILLER_0_22_265
*665 FILLER_0_22_27
*666 FILLER_0_22_277
*667 FILLER_0_22_289
*668 FILLER_0_22_29
*669 FILLER_0_22_3
*670 FILLER_0_22_301
*671 FILLER_0_22_307
*672 FILLER_0_22_309
*673 FILLER_0_22_321
*674 FILLER_0_22_333
*675 FILLER_0_22_345
*676 FILLER_0_22_41
*677 FILLER_0_22_53
*678 FILLER_0_22_65
*679 FILLER_0_22_77
*680 FILLER_0_22_83
*681 FILLER_0_22_85
*682 FILLER_0_22_97
*683 FILLER_0_23_105
*684 FILLER_0_23_111
*685 FILLER_0_23_113
*686 FILLER_0_23_125
*687 FILLER_0_23_137
*688 FILLER_0_23_149
*689 FILLER_0_23_15
*690 FILLER_0_23_161
*691 FILLER_0_23_167
*692 FILLER_0_23_169
*693 FILLER_0_23_181
*694 FILLER_0_23_193
*695 FILLER_0_23_205
*696 FILLER_0_23_217
*697 FILLER_0_23_223
*698 FILLER_0_23_225
*699 FILLER_0_23_237
*700 FILLER_0_23_249
*701 FILLER_0_23_261
*702 FILLER_0_23_27
*703 FILLER_0_23_273
*704 FILLER_0_23_279
*705 FILLER_0_23_281
*706 FILLER_0_23_293
*707 FILLER_0_23_3
*708 FILLER_0_23_305
*709 FILLER_0_23_317
*710 FILLER_0_23_329
*711 FILLER_0_23_335
*712 FILLER_0_23_337
*713 FILLER_0_23_349
*714 FILLER_0_23_39
*715 FILLER_0_23_51
*716 FILLER_0_23_55
*717 FILLER_0_23_57
*718 FILLER_0_23_69
*719 FILLER_0_23_81
*720 FILLER_0_23_93
*721 FILLER_0_24_109
*722 FILLER_0_24_121
*723 FILLER_0_24_133
*724 FILLER_0_24_139
*725 FILLER_0_24_141
*726 FILLER_0_24_15
*727 FILLER_0_24_153
*728 FILLER_0_24_165
*729 FILLER_0_24_177
*730 FILLER_0_24_189
*731 FILLER_0_24_195
*732 FILLER_0_24_197
*733 FILLER_0_24_209
*734 FILLER_0_24_221
*735 FILLER_0_24_233
*736 FILLER_0_24_245
*737 FILLER_0_24_251
*738 FILLER_0_24_253
*739 FILLER_0_24_265
*740 FILLER_0_24_27
*741 FILLER_0_24_277
*742 FILLER_0_24_289
*743 FILLER_0_24_29
*744 FILLER_0_24_3
*745 FILLER_0_24_301
*746 FILLER_0_24_307
*747 FILLER_0_24_309
*748 FILLER_0_24_321
*749 FILLER_0_24_333
*750 FILLER_0_24_345
*751 FILLER_0_24_41
*752 FILLER_0_24_53
*753 FILLER_0_24_65
*754 FILLER_0_24_77
*755 FILLER_0_24_83
*756 FILLER_0_24_85
*757 FILLER_0_24_97
*758 FILLER_0_25_105
*759 FILLER_0_25_111
*760 FILLER_0_25_113
*761 FILLER_0_25_125
*762 FILLER_0_25_137
*763 FILLER_0_25_149
*764 FILLER_0_25_15
*765 FILLER_0_25_161
*766 FILLER_0_25_167
*767 FILLER_0_25_169
*768 FILLER_0_25_181
*769 FILLER_0_25_193
*770 FILLER_0_25_205
*771 FILLER_0_25_217
*772 FILLER_0_25_223
*773 FILLER_0_25_225
*774 FILLER_0_25_237
*775 FILLER_0_25_249
*776 FILLER_0_25_261
*777 FILLER_0_25_27
*778 FILLER_0_25_273
*779 FILLER_0_25_279
*780 FILLER_0_25_281
*781 FILLER_0_25_293
*782 FILLER_0_25_3
*783 FILLER_0_25_305
*784 FILLER_0_25_317
*785 FILLER_0_25_329
*786 FILLER_0_25_335
*787 FILLER_0_25_337
*788 FILLER_0_25_349
*789 FILLER_0_25_39
*790 FILLER_0_25_51
*791 FILLER_0_25_55
*792 FILLER_0_25_57
*793 FILLER_0_25_69
*794 FILLER_0_25_81
*795 FILLER_0_25_93
*796 FILLER_0_26_109
*797 FILLER_0_26_121
*798 FILLER_0_26_133
*799 FILLER_0_26_139
*800 FILLER_0_26_141
*801 FILLER_0_26_15
*802 FILLER_0_26_153
*803 FILLER_0_26_165
*804 FILLER_0_26_177
*805 FILLER_0_26_189
*806 FILLER_0_26_195
*807 FILLER_0_26_197
*808 FILLER_0_26_209
*809 FILLER_0_26_221
*810 FILLER_0_26_233
*811 FILLER_0_26_245
*812 FILLER_0_26_251
*813 FILLER_0_26_253
*814 FILLER_0_26_265
*815 FILLER_0_26_27
*816 FILLER_0_26_277
*817 FILLER_0_26_289
*818 FILLER_0_26_29
*819 FILLER_0_26_3
*820 FILLER_0_26_301
*821 FILLER_0_26_307
*822 FILLER_0_26_309
*823 FILLER_0_26_321
*824 FILLER_0_26_333
*825 FILLER_0_26_345
*826 FILLER_0_26_41
*827 FILLER_0_26_53
*828 FILLER_0_26_65
*829 FILLER_0_26_77
*830 FILLER_0_26_83
*831 FILLER_0_26_85
*832 FILLER_0_26_97
*833 FILLER_0_27_105
*834 FILLER_0_27_111
*835 FILLER_0_27_113
*836 FILLER_0_27_125
*837 FILLER_0_27_137
*838 FILLER_0_27_149
*839 FILLER_0_27_15
*840 FILLER_0_27_161
*841 FILLER_0_27_167
*842 FILLER_0_27_169
*843 FILLER_0_27_181
*844 FILLER_0_27_193
*845 FILLER_0_27_205
*846 FILLER_0_27_217
*847 FILLER_0_27_223
*848 FILLER_0_27_225
*849 FILLER_0_27_237
*850 FILLER_0_27_249
*851 FILLER_0_27_261
*852 FILLER_0_27_27
*853 FILLER_0_27_273
*854 FILLER_0_27_279
*855 FILLER_0_27_281
*856 FILLER_0_27_293
*857 FILLER_0_27_3
*858 FILLER_0_27_305
*859 FILLER_0_27_317
*860 FILLER_0_27_329
*861 FILLER_0_27_335
*862 FILLER_0_27_337
*863 FILLER_0_27_349
*864 FILLER_0_27_39
*865 FILLER_0_27_51
*866 FILLER_0_27_55
*867 FILLER_0_27_57
*868 FILLER_0_27_69
*869 FILLER_0_27_81
*870 FILLER_0_27_93
*871 FILLER_0_28_109
*872 FILLER_0_28_121
*873 FILLER_0_28_133
*874 FILLER_0_28_139
*875 FILLER_0_28_141
*876 FILLER_0_28_15
*877 FILLER_0_28_153
*878 FILLER_0_28_165
*879 FILLER_0_28_177
*880 FILLER_0_28_189
*881 FILLER_0_28_195
*882 FILLER_0_28_197
*883 FILLER_0_28_209
*884 FILLER_0_28_221
*885 FILLER_0_28_233
*886 FILLER_0_28_245
*887 FILLER_0_28_251
*888 FILLER_0_28_253
*889 FILLER_0_28_265
*890 FILLER_0_28_27
*891 FILLER_0_28_277
*892 FILLER_0_28_289
*893 FILLER_0_28_29
*894 FILLER_0_28_3
*895 FILLER_0_28_301
*896 FILLER_0_28_307
*897 FILLER_0_28_309
*898 FILLER_0_28_321
*899 FILLER_0_28_333
*900 FILLER_0_28_345
*901 FILLER_0_28_41
*902 FILLER_0_28_53
*903 FILLER_0_28_65
*904 FILLER_0_28_77
*905 FILLER_0_28_83
*906 FILLER_0_28_85
*907 FILLER_0_28_97
*908 FILLER_0_29_105
*909 FILLER_0_29_111
*910 FILLER_0_29_113
*911 FILLER_0_29_125
*912 FILLER_0_29_137
*913 FILLER_0_29_149
*914 FILLER_0_29_15
*915 FILLER_0_29_161
*916 FILLER_0_29_167
*917 FILLER_0_29_169
*918 FILLER_0_29_181
*919 FILLER_0_29_193
*920 FILLER_0_29_205
*921 FILLER_0_29_217
*922 FILLER_0_29_223
*923 FILLER_0_29_225
*924 FILLER_0_29_237
*925 FILLER_0_29_249
*926 FILLER_0_29_261
*927 FILLER_0_29_27
*928 FILLER_0_29_273
*929 FILLER_0_29_279
*930 FILLER_0_29_281
*931 FILLER_0_29_293
*932 FILLER_0_29_3
*933 FILLER_0_29_305
*934 FILLER_0_29_317
*935 FILLER_0_29_329
*936 FILLER_0_29_335
*937 FILLER_0_29_337
*938 FILLER_0_29_349
*939 FILLER_0_29_39
*940 FILLER_0_29_51
*941 FILLER_0_29_55
*942 FILLER_0_29_57
*943 FILLER_0_29_69
*944 FILLER_0_29_81
*945 FILLER_0_29_93
*946 FILLER_0_2_109
*947 FILLER_0_2_121
*948 FILLER_0_2_133
*949 FILLER_0_2_139
*950 FILLER_0_2_141
*951 FILLER_0_2_15
*952 FILLER_0_2_153
*953 FILLER_0_2_165
*954 FILLER_0_2_177
*955 FILLER_0_2_189
*956 FILLER_0_2_195
*957 FILLER_0_2_197
*958 FILLER_0_2_209
*959 FILLER_0_2_221
*960 FILLER_0_2_233
*961 FILLER_0_2_245
*962 FILLER_0_2_251
*963 FILLER_0_2_253
*964 FILLER_0_2_265
*965 FILLER_0_2_27
*966 FILLER_0_2_277
*967 FILLER_0_2_289
*968 FILLER_0_2_29
*969 FILLER_0_2_3
*970 FILLER_0_2_301
*971 FILLER_0_2_307
*972 FILLER_0_2_309
*973 FILLER_0_2_321
*974 FILLER_0_2_333
*975 FILLER_0_2_345
*976 FILLER_0_2_41
*977 FILLER_0_2_53
*978 FILLER_0_2_65
*979 FILLER_0_2_77
*980 FILLER_0_2_83
*981 FILLER_0_2_85
*982 FILLER_0_2_97
*983 FILLER_0_30_109
*984 FILLER_0_30_121
*985 FILLER_0_30_133
*986 FILLER_0_30_139
*987 FILLER_0_30_141
*988 FILLER_0_30_15
*989 FILLER_0_30_153
*990 FILLER_0_30_165
*991 FILLER_0_30_177
*992 FILLER_0_30_189
*993 FILLER_0_30_195
*994 FILLER_0_30_197
*995 FILLER_0_30_209
*996 FILLER_0_30_221
*997 FILLER_0_30_233
*998 FILLER_0_30_245
*999 FILLER_0_30_251
*1000 FILLER_0_30_253
*1001 FILLER_0_30_265
*1002 FILLER_0_30_27
*1003 FILLER_0_30_277
*1004 FILLER_0_30_289
*1005 FILLER_0_30_29
*1006 FILLER_0_30_3
*1007 FILLER_0_30_301
*1008 FILLER_0_30_307
*1009 FILLER_0_30_309
*1010 FILLER_0_30_321
*1011 FILLER_0_30_333
*1012 FILLER_0_30_345
*1013 FILLER_0_30_41
*1014 FILLER_0_30_53
*1015 FILLER_0_30_65
*1016 FILLER_0_30_77
*1017 FILLER_0_30_83
*1018 FILLER_0_30_85
*1019 FILLER_0_30_97
*1020 FILLER_0_31_105
*1021 FILLER_0_31_111
*1022 FILLER_0_31_113
*1023 FILLER_0_31_125
*1024 FILLER_0_31_137
*1025 FILLER_0_31_149
*1026 FILLER_0_31_15
*1027 FILLER_0_31_161
*1028 FILLER_0_31_167
*1029 FILLER_0_31_169
*1030 FILLER_0_31_181
*1031 FILLER_0_31_193
*1032 FILLER_0_31_205
*1033 FILLER_0_31_217
*1034 FILLER_0_31_223
*1035 FILLER_0_31_225
*1036 FILLER_0_31_237
*1037 FILLER_0_31_249
*1038 FILLER_0_31_261
*1039 FILLER_0_31_27
*1040 FILLER_0_31_273
*1041 FILLER_0_31_279
*1042 FILLER_0_31_281
*1043 FILLER_0_31_293
*1044 FILLER_0_31_3
*1045 FILLER_0_31_305
*1046 FILLER_0_31_317
*1047 FILLER_0_31_329
*1048 FILLER_0_31_335
*1049 FILLER_0_31_337
*1050 FILLER_0_31_349
*1051 FILLER_0_31_39
*1052 FILLER_0_31_51
*1053 FILLER_0_31_55
*1054 FILLER_0_31_57
*1055 FILLER_0_31_69
*1056 FILLER_0_31_81
*1057 FILLER_0_31_93
*1058 FILLER_0_32_109
*1059 FILLER_0_32_121
*1060 FILLER_0_32_133
*1061 FILLER_0_32_139
*1062 FILLER_0_32_141
*1063 FILLER_0_32_15
*1064 FILLER_0_32_153
*1065 FILLER_0_32_165
*1066 FILLER_0_32_177
*1067 FILLER_0_32_189
*1068 FILLER_0_32_195
*1069 FILLER_0_32_197
*1070 FILLER_0_32_205
*1071 FILLER_0_32_212
*1072 FILLER_0_32_224
*1073 FILLER_0_32_236
*1074 FILLER_0_32_248
*1075 FILLER_0_32_253
*1076 FILLER_0_32_265
*1077 FILLER_0_32_27
*1078 FILLER_0_32_277
*1079 FILLER_0_32_289
*1080 FILLER_0_32_29
*1081 FILLER_0_32_3
*1082 FILLER_0_32_300
*1083 FILLER_0_32_309
*1084 FILLER_0_32_321
*1085 FILLER_0_32_333
*1086 FILLER_0_32_345
*1087 FILLER_0_32_41
*1088 FILLER_0_32_53
*1089 FILLER_0_32_65
*1090 FILLER_0_32_77
*1091 FILLER_0_32_83
*1092 FILLER_0_32_85
*1093 FILLER_0_32_97
*1094 FILLER_0_33_105
*1095 FILLER_0_33_111
*1096 FILLER_0_33_113
*1097 FILLER_0_33_125
*1098 FILLER_0_33_137
*1099 FILLER_0_33_149
*1100 FILLER_0_33_15
*1101 FILLER_0_33_161
*1102 FILLER_0_33_167
*1103 FILLER_0_33_169
*1104 FILLER_0_33_181
*1105 FILLER_0_33_193
*1106 FILLER_0_33_220
*1107 FILLER_0_33_225
*1108 FILLER_0_33_237
*1109 FILLER_0_33_249
*1110 FILLER_0_33_27
*1111 FILLER_0_33_277
*1112 FILLER_0_33_281
*1113 FILLER_0_33_289
*1114 FILLER_0_33_3
*1115 FILLER_0_33_308
*1116 FILLER_0_33_320
*1117 FILLER_0_33_332
*1118 FILLER_0_33_337
*1119 FILLER_0_33_349
*1120 FILLER_0_33_39
*1121 FILLER_0_33_51
*1122 FILLER_0_33_55
*1123 FILLER_0_33_57
*1124 FILLER_0_33_69
*1125 FILLER_0_33_81
*1126 FILLER_0_33_93
*1127 FILLER_0_34_109
*1128 FILLER_0_34_121
*1129 FILLER_0_34_133
*1130 FILLER_0_34_139
*1131 FILLER_0_34_141
*1132 FILLER_0_34_15
*1133 FILLER_0_34_153
*1134 FILLER_0_34_165
*1135 FILLER_0_34_177
*1136 FILLER_0_34_195
*1137 FILLER_0_34_197
*1138 FILLER_0_34_237
*1139 FILLER_0_34_245
*1140 FILLER_0_34_249
*1141 FILLER_0_34_253
*1142 FILLER_0_34_259
*1143 FILLER_0_34_27
*1144 FILLER_0_34_29
*1145 FILLER_0_34_296
*1146 FILLER_0_34_3
*1147 FILLER_0_34_309
*1148 FILLER_0_34_321
*1149 FILLER_0_34_333
*1150 FILLER_0_34_345
*1151 FILLER_0_34_41
*1152 FILLER_0_34_53
*1153 FILLER_0_34_65
*1154 FILLER_0_34_77
*1155 FILLER_0_34_83
*1156 FILLER_0_34_85
*1157 FILLER_0_34_97
*1158 FILLER_0_35_105
*1159 FILLER_0_35_111
*1160 FILLER_0_35_113
*1161 FILLER_0_35_125
*1162 FILLER_0_35_137
*1163 FILLER_0_35_149
*1164 FILLER_0_35_15
*1165 FILLER_0_35_185
*1166 FILLER_0_35_200
*1167 FILLER_0_35_212
*1168 FILLER_0_35_221
*1169 FILLER_0_35_230
*1170 FILLER_0_35_27
*1171 FILLER_0_35_272
*1172 FILLER_0_35_281
*1173 FILLER_0_35_289
*1174 FILLER_0_35_297
*1175 FILLER_0_35_3
*1176 FILLER_0_35_309
*1177 FILLER_0_35_321
*1178 FILLER_0_35_333
*1179 FILLER_0_35_337
*1180 FILLER_0_35_349
*1181 FILLER_0_35_39
*1182 FILLER_0_35_51
*1183 FILLER_0_35_55
*1184 FILLER_0_35_57
*1185 FILLER_0_35_69
*1186 FILLER_0_35_81
*1187 FILLER_0_35_93
*1188 FILLER_0_36_109
*1189 FILLER_0_36_121
*1190 FILLER_0_36_133
*1191 FILLER_0_36_139
*1192 FILLER_0_36_141
*1193 FILLER_0_36_15
*1194 FILLER_0_36_153
*1195 FILLER_0_36_166
*1196 FILLER_0_36_174
*1197 FILLER_0_36_179
*1198 FILLER_0_36_191
*1199 FILLER_0_36_195
*1200 FILLER_0_36_216
*1201 FILLER_0_36_237
*1202 FILLER_0_36_250
*1203 FILLER_0_36_261
*1204 FILLER_0_36_27
*1205 FILLER_0_36_281
*1206 FILLER_0_36_287
*1207 FILLER_0_36_29
*1208 FILLER_0_36_3
*1209 FILLER_0_36_307
*1210 FILLER_0_36_309
*1211 FILLER_0_36_327
*1212 FILLER_0_36_339
*1213 FILLER_0_36_41
*1214 FILLER_0_36_53
*1215 FILLER_0_36_65
*1216 FILLER_0_36_77
*1217 FILLER_0_36_83
*1218 FILLER_0_36_85
*1219 FILLER_0_36_97
*1220 FILLER_0_37_105
*1221 FILLER_0_37_111
*1222 FILLER_0_37_113
*1223 FILLER_0_37_125
*1224 FILLER_0_37_137
*1225 FILLER_0_37_149
*1226 FILLER_0_37_15
*1227 FILLER_0_37_165
*1228 FILLER_0_37_169
*1229 FILLER_0_37_187
*1230 FILLER_0_37_191
*1231 FILLER_0_37_195
*1232 FILLER_0_37_203
*1233 FILLER_0_37_214
*1234 FILLER_0_37_222
*1235 FILLER_0_37_225
*1236 FILLER_0_37_231
*1237 FILLER_0_37_243
*1238 FILLER_0_37_248
*1239 FILLER_0_37_258
*1240 FILLER_0_37_27
*1241 FILLER_0_37_274
*1242 FILLER_0_37_284
*1243 FILLER_0_37_292
*1244 FILLER_0_37_296
*1245 FILLER_0_37_3
*1246 FILLER_0_37_309
*1247 FILLER_0_37_316
*1248 FILLER_0_37_328
*1249 FILLER_0_37_337
*1250 FILLER_0_37_349
*1251 FILLER_0_37_39
*1252 FILLER_0_37_51
*1253 FILLER_0_37_55
*1254 FILLER_0_37_57
*1255 FILLER_0_37_69
*1256 FILLER_0_37_81
*1257 FILLER_0_37_93
*1258 FILLER_0_38_104
*1259 FILLER_0_38_110
*1260 FILLER_0_38_113
*1261 FILLER_0_38_124
*1262 FILLER_0_38_128
*1263 FILLER_0_38_134
*1264 FILLER_0_38_141
*1265 FILLER_0_38_146
*1266 FILLER_0_38_15
*1267 FILLER_0_38_152
*1268 FILLER_0_38_167
*1269 FILLER_0_38_169
*1270 FILLER_0_38_178
*1271 FILLER_0_38_186
*1272 FILLER_0_38_197
*1273 FILLER_0_38_217
*1274 FILLER_0_38_223
*1275 FILLER_0_38_225
*1276 FILLER_0_38_229
*1277 FILLER_0_38_241
*1278 FILLER_0_38_249
*1279 FILLER_0_38_253
*1280 FILLER_0_38_27
*1281 FILLER_0_38_271
*1282 FILLER_0_38_281
*1283 FILLER_0_38_29
*1284 FILLER_0_38_297
*1285 FILLER_0_38_3
*1286 FILLER_0_38_318
*1287 FILLER_0_38_330
*1288 FILLER_0_38_337
*1289 FILLER_0_38_349
*1290 FILLER_0_38_41
*1291 FILLER_0_38_53
*1292 FILLER_0_38_57
*1293 FILLER_0_38_68
*1294 FILLER_0_38_74
*1295 FILLER_0_38_80
*1296 FILLER_0_38_88
*1297 FILLER_0_38_92
*1298 FILLER_0_38_98
*1299 FILLER_0_3_105
*1300 FILLER_0_3_111
*1301 FILLER_0_3_113
*1302 FILLER_0_3_125
*1303 FILLER_0_3_137
*1304 FILLER_0_3_149
*1305 FILLER_0_3_15
*1306 FILLER_0_3_161
*1307 FILLER_0_3_167
*1308 FILLER_0_3_169
*1309 FILLER_0_3_181
*1310 FILLER_0_3_193
*1311 FILLER_0_3_205
*1312 FILLER_0_3_217
*1313 FILLER_0_3_223
*1314 FILLER_0_3_225
*1315 FILLER_0_3_237
*1316 FILLER_0_3_249
*1317 FILLER_0_3_261
*1318 FILLER_0_3_27
*1319 FILLER_0_3_273
*1320 FILLER_0_3_279
*1321 FILLER_0_3_281
*1322 FILLER_0_3_293
*1323 FILLER_0_3_3
*1324 FILLER_0_3_305
*1325 FILLER_0_3_317
*1326 FILLER_0_3_329
*1327 FILLER_0_3_335
*1328 FILLER_0_3_337
*1329 FILLER_0_3_349
*1330 FILLER_0_3_39
*1331 FILLER_0_3_51
*1332 FILLER_0_3_55
*1333 FILLER_0_3_57
*1334 FILLER_0_3_69
*1335 FILLER_0_3_81
*1336 FILLER_0_3_93
*1337 FILLER_0_4_109
*1338 FILLER_0_4_121
*1339 FILLER_0_4_133
*1340 FILLER_0_4_139
*1341 FILLER_0_4_141
*1342 FILLER_0_4_15
*1343 FILLER_0_4_153
*1344 FILLER_0_4_165
*1345 FILLER_0_4_177
*1346 FILLER_0_4_189
*1347 FILLER_0_4_195
*1348 FILLER_0_4_197
*1349 FILLER_0_4_209
*1350 FILLER_0_4_221
*1351 FILLER_0_4_233
*1352 FILLER_0_4_245
*1353 FILLER_0_4_251
*1354 FILLER_0_4_253
*1355 FILLER_0_4_265
*1356 FILLER_0_4_27
*1357 FILLER_0_4_277
*1358 FILLER_0_4_289
*1359 FILLER_0_4_29
*1360 FILLER_0_4_3
*1361 FILLER_0_4_301
*1362 FILLER_0_4_307
*1363 FILLER_0_4_309
*1364 FILLER_0_4_321
*1365 FILLER_0_4_333
*1366 FILLER_0_4_345
*1367 FILLER_0_4_41
*1368 FILLER_0_4_53
*1369 FILLER_0_4_65
*1370 FILLER_0_4_77
*1371 FILLER_0_4_83
*1372 FILLER_0_4_85
*1373 FILLER_0_4_97
*1374 FILLER_0_5_105
*1375 FILLER_0_5_111
*1376 FILLER_0_5_113
*1377 FILLER_0_5_125
*1378 FILLER_0_5_137
*1379 FILLER_0_5_149
*1380 FILLER_0_5_15
*1381 FILLER_0_5_161
*1382 FILLER_0_5_167
*1383 FILLER_0_5_169
*1384 FILLER_0_5_181
*1385 FILLER_0_5_193
*1386 FILLER_0_5_205
*1387 FILLER_0_5_217
*1388 FILLER_0_5_223
*1389 FILLER_0_5_225
*1390 FILLER_0_5_237
*1391 FILLER_0_5_249
*1392 FILLER_0_5_261
*1393 FILLER_0_5_27
*1394 FILLER_0_5_273
*1395 FILLER_0_5_279
*1396 FILLER_0_5_281
*1397 FILLER_0_5_293
*1398 FILLER_0_5_3
*1399 FILLER_0_5_305
*1400 FILLER_0_5_317
*1401 FILLER_0_5_329
*1402 FILLER_0_5_335
*1403 FILLER_0_5_337
*1404 FILLER_0_5_349
*1405 FILLER_0_5_39
*1406 FILLER_0_5_51
*1407 FILLER_0_5_55
*1408 FILLER_0_5_57
*1409 FILLER_0_5_69
*1410 FILLER_0_5_81
*1411 FILLER_0_5_93
*1412 FILLER_0_6_109
*1413 FILLER_0_6_121
*1414 FILLER_0_6_133
*1415 FILLER_0_6_139
*1416 FILLER_0_6_141
*1417 FILLER_0_6_15
*1418 FILLER_0_6_153
*1419 FILLER_0_6_165
*1420 FILLER_0_6_177
*1421 FILLER_0_6_189
*1422 FILLER_0_6_195
*1423 FILLER_0_6_197
*1424 FILLER_0_6_209
*1425 FILLER_0_6_221
*1426 FILLER_0_6_233
*1427 FILLER_0_6_245
*1428 FILLER_0_6_251
*1429 FILLER_0_6_253
*1430 FILLER_0_6_265
*1431 FILLER_0_6_27
*1432 FILLER_0_6_277
*1433 FILLER_0_6_289
*1434 FILLER_0_6_29
*1435 FILLER_0_6_3
*1436 FILLER_0_6_301
*1437 FILLER_0_6_307
*1438 FILLER_0_6_309
*1439 FILLER_0_6_321
*1440 FILLER_0_6_333
*1441 FILLER_0_6_345
*1442 FILLER_0_6_41
*1443 FILLER_0_6_53
*1444 FILLER_0_6_65
*1445 FILLER_0_6_77
*1446 FILLER_0_6_83
*1447 FILLER_0_6_85
*1448 FILLER_0_6_97
*1449 FILLER_0_7_105
*1450 FILLER_0_7_111
*1451 FILLER_0_7_113
*1452 FILLER_0_7_125
*1453 FILLER_0_7_137
*1454 FILLER_0_7_149
*1455 FILLER_0_7_15
*1456 FILLER_0_7_161
*1457 FILLER_0_7_167
*1458 FILLER_0_7_169
*1459 FILLER_0_7_181
*1460 FILLER_0_7_193
*1461 FILLER_0_7_205
*1462 FILLER_0_7_217
*1463 FILLER_0_7_223
*1464 FILLER_0_7_225
*1465 FILLER_0_7_237
*1466 FILLER_0_7_249
*1467 FILLER_0_7_261
*1468 FILLER_0_7_27
*1469 FILLER_0_7_273
*1470 FILLER_0_7_279
*1471 FILLER_0_7_281
*1472 FILLER_0_7_293
*1473 FILLER_0_7_3
*1474 FILLER_0_7_305
*1475 FILLER_0_7_317
*1476 FILLER_0_7_329
*1477 FILLER_0_7_335
*1478 FILLER_0_7_337