*SPEF "ieee 1481-1999"
*DESIGN "tt_um_urish_dffram"
*DATE "11:11:11 Fri 11 11, 1111"
*VENDOR "OpenRCX"
*PROGRAM "Parallel Extraction"
*VERSION "1.0"
*DESIGN_FLOW "NAME_SCOPE LOCAL" "PIN_CAP NONE"
*DIVIDER /
*DELIMITER :
*BUS_DELIMITER []
*T_UNIT 1 NS
*C_UNIT 1 PF
*R_UNIT 1 OHM
*L_UNIT 1 HENRY

*NAME_MAP
*3 clk
*4 ena
*5 rst_n
*6 ui_in[0]
*7 ui_in[1]
*8 ui_in[2]
*9 ui_in[3]
*10 ui_in[4]
*11 ui_in[5]
*12 ui_in[6]
*13 ui_in[7]
*14 uio_in[0]
*15 uio_in[1]
*16 uio_in[2]
*17 uio_in[3]
*18 uio_in[4]
*19 uio_in[5]
*20 uio_in[6]
*21 uio_in[7]
*22 uio_oe[0]
*23 uio_oe[1]
*24 uio_oe[2]
*25 uio_oe[3]
*26 uio_oe[4]
*27 uio_oe[5]
*28 uio_oe[6]
*29 uio_oe[7]
*30 uio_out[0]
*31 uio_out[1]
*32 uio_out[2]
*33 uio_out[3]
*34 uio_out[4]
*35 uio_out[5]
*36 uio_out[6]
*37 uio_out[7]
*38 uo_out[0]
*39 uo_out[1]
*40 uo_out[2]
*41 uo_out[3]
*42 uo_out[4]
*43 uo_out[5]
*44 uo_out[6]
*45 uo_out[7]
*46 Di0\[0\]
*47 Di0\[10\]
*48 Di0\[11\]
*49 Di0\[12\]
*50 Di0\[13\]
*51 Di0\[14\]
*52 Di0\[15\]
*53 Di0\[16\]
*54 Di0\[17\]
*55 Di0\[18\]
*56 Di0\[19\]
*57 Di0\[1\]
*58 Di0\[20\]
*59 Di0\[21\]
*60 Di0\[22\]
*61 Di0\[23\]
*62 Di0\[24\]
*63 Di0\[25\]
*64 Di0\[26\]
*65 Di0\[27\]
*66 Di0\[28\]
*67 Di0\[29\]
*68 Di0\[2\]
*69 Di0\[30\]
*70 Di0\[31\]
*71 Di0\[3\]
*72 Di0\[4\]
*73 Di0\[5\]
*74 Di0\[6\]
*75 Di0\[7\]
*76 Di0\[8\]
*77 Di0\[9\]
*78 Do0\[0\]
*79 Do0\[10\]
*80 Do0\[11\]
*81 Do0\[12\]
*82 Do0\[13\]
*83 Do0\[14\]
*84 Do0\[15\]
*85 Do0\[16\]
*86 Do0\[17\]
*87 Do0\[18\]
*88 Do0\[19\]
*89 Do0\[1\]
*90 Do0\[20\]
*91 Do0\[21\]
*92 Do0\[22\]
*93 Do0\[23\]
*94 Do0\[24\]
*95 Do0\[25\]
*96 Do0\[26\]
*97 Do0\[27\]
*98 Do0\[28\]
*99 Do0\[29\]
*100 Do0\[2\]
*101 Do0\[30\]
*102 Do0\[31\]
*103 Do0\[3\]
*104 Do0\[4\]
*105 Do0\[5\]
*106 Do0\[6\]
*107 Do0\[7\]
*108 Do0\[8\]
*109 Do0\[9\]
*110 WE0
*111 WE1
*112 WE2
*113 WE3
*114 _000_
*115 _001_
*116 _002_
*117 _003_
*118 _004_
*119 _005_
*120 _006_
*121 _007_
*122 _008_
*123 _009_
*124 _010_
*125 _011_
*126 _012_
*127 _013_
*128 _014_
*129 _015_
*130 _016_
*131 _017_
*132 _018_
*133 _019_
*134 _020_
*135 _021_
*136 _022_
*137 _023_
*138 _024_
*139 _025_
*140 _026_
*141 _027_
*142 _028_
*143 _029_
*144 _030_
*145 _031_
*146 _032_
*147 _033_
*148 _034_
*149 _035_
*150 _036_
*151 _037_
*152 _038_
*153 clknet_0_clk
*154 clknet_1_0__leaf_clk
*155 clknet_1_1__leaf_clk
*156 net1
*157 net10
*158 net11
*159 net12
*160 net13
*161 net14
*162 net15
*163 net16
*164 net17
*165 net18
*166 net19
*167 net2
*168 net20
*169 net21
*170 net22
*171 net23
*172 net24
*173 net25
*174 net26
*175 net27
*176 net28
*177 net29
*178 net3
*179 net30
*180 net31
*181 net32
*182 net33
*183 net34
*184 net35
*185 net36
*186 net37
*187 net38
*188 net39
*189 net4
*190 net40
*191 net41
*192 net42
*193 net43
*194 net44
*195 net45
*196 net46
*197 net47
*198 net48
*199 net49
*200 net5
*201 net50
*202 net51
*203 net52
*204 net6
*205 net7
*206 net8
*207 net9
*208 out_bit_index\[3\]
*209 out_bit_index\[4\]
*210 ANTENNA_1
*211 ANTENNA_2
*212 ANTENNA_3
*213 ANTENNA_4
*214 FILLER_0_0_1008
*215 FILLER_0_0_1020
*216 FILLER_0_0_1024
*217 FILLER_0_0_1036
*218 FILLER_0_0_1048
*219 FILLER_0_0_1052
*220 FILLER_0_0_1064
*221 FILLER_0_0_1076
*222 FILLER_0_0_1080
*223 FILLER_0_0_1092
*224 FILLER_0_0_1104
*225 FILLER_0_0_1108
*226 FILLER_0_0_1120
*227 FILLER_0_0_1132
*228 FILLER_0_0_1136
*229 FILLER_0_0_1148
*230 FILLER_0_0_1160
*231 FILLER_0_0_1164
*232 FILLER_0_0_1176
*233 FILLER_0_0_1188
*234 FILLER_0_0_1192
*235 FILLER_0_0_1204
*236 FILLER_0_0_1216
*237 FILLER_0_0_1220
*238 FILLER_0_0_1232
*239 FILLER_0_0_1244
*240 FILLER_0_0_1248
*241 FILLER_0_0_1260
*242 FILLER_0_0_1272
*243 FILLER_0_0_1276
*244 FILLER_0_0_1288
*245 FILLER_0_0_1300
*246 FILLER_0_0_1304
*247 FILLER_0_0_1316
*248 FILLER_0_0_1328
*249 FILLER_0_0_1332
*250 FILLER_0_0_1344
*251 FILLER_0_0_1356
*252 FILLER_0_0_1360
*253 FILLER_0_0_1372
*254 FILLER_0_0_1384
*255 FILLER_0_0_1388
*256 FILLER_0_0_1400
*257 FILLER_0_0_1412
*258 FILLER_0_0_1416
*259 FILLER_0_0_1428
*260 FILLER_0_0_1436
*261 FILLER_0_0_914
*262 FILLER_0_0_926
*263 FILLER_0_0_938
*264 FILLER_0_0_940
*265 FILLER_0_0_952
*266 FILLER_0_0_964
*267 FILLER_0_0_968
*268 FILLER_0_0_980
*269 FILLER_0_0_992
*270 FILLER_0_0_996
*271 FILLER_0_10_1008
*272 FILLER_0_10_1020
*273 FILLER_0_10_1032
*274 FILLER_0_10_1044
*275 FILLER_0_10_1050
*276 FILLER_0_10_1052
*277 FILLER_0_10_1064
*278 FILLER_0_10_1076
*279 FILLER_0_10_1088
*280 FILLER_0_10_1100
*281 FILLER_0_10_1106
*282 FILLER_0_10_1108
*283 FILLER_0_10_1120
*284 FILLER_0_10_1132
*285 FILLER_0_10_1144
*286 FILLER_0_10_1156
*287 FILLER_0_10_1162
*288 FILLER_0_10_1164
*289 FILLER_0_10_1176
*290 FILLER_0_10_1188
*291 FILLER_0_10_1200
*292 FILLER_0_10_1212
*293 FILLER_0_10_1218
*294 FILLER_0_10_1220
*295 FILLER_0_10_1232
*296 FILLER_0_10_1244
*297 FILLER_0_10_1256
*298 FILLER_0_10_1268
*299 FILLER_0_10_1274
*300 FILLER_0_10_1276
*301 FILLER_0_10_1288
*302 FILLER_0_10_1300
*303 FILLER_0_10_1312
*304 FILLER_0_10_1324
*305 FILLER_0_10_1330
*306 FILLER_0_10_1332
*307 FILLER_0_10_1344
*308 FILLER_0_10_1356
*309 FILLER_0_10_1368
*310 FILLER_0_10_1380
*311 FILLER_0_10_1386
*312 FILLER_0_10_1388
*313 FILLER_0_10_1400
*314 FILLER_0_10_1412
*315 FILLER_0_10_1424
*316 FILLER_0_10_1436
*317 FILLER_0_10_914
*318 FILLER_0_10_926
*319 FILLER_0_10_938
*320 FILLER_0_10_940
*321 FILLER_0_10_952
*322 FILLER_0_10_964
*323 FILLER_0_10_976
*324 FILLER_0_10_988
*325 FILLER_0_10_994
*326 FILLER_0_10_996
*327 FILLER_0_11_1004
*328 FILLER_0_11_1016
*329 FILLER_0_11_1022
*330 FILLER_0_11_1024
*331 FILLER_0_11_1036
*332 FILLER_0_11_1048
*333 FILLER_0_11_1060
*334 FILLER_0_11_1072
*335 FILLER_0_11_1078
*336 FILLER_0_11_1080
*337 FILLER_0_11_1092
*338 FILLER_0_11_1104
*339 FILLER_0_11_1116
*340 FILLER_0_11_1128
*341 FILLER_0_11_1134
*342 FILLER_0_11_1136
*343 FILLER_0_11_1148
*344 FILLER_0_11_1160
*345 FILLER_0_11_1172
*346 FILLER_0_11_1184
*347 FILLER_0_11_1190
*348 FILLER_0_11_1192
*349 FILLER_0_11_1204
*350 FILLER_0_11_1216
*351 FILLER_0_11_1228
*352 FILLER_0_11_1240
*353 FILLER_0_11_1246
*354 FILLER_0_11_1248
*355 FILLER_0_11_1260
*356 FILLER_0_11_1272
*357 FILLER_0_11_1284
*358 FILLER_0_11_1296
*359 FILLER_0_11_1302
*360 FILLER_0_11_1304
*361 FILLER_0_11_1316
*362 FILLER_0_11_1328
*363 FILLER_0_11_1340
*364 FILLER_0_11_1352
*365 FILLER_0_11_1358
*366 FILLER_0_11_1360
*367 FILLER_0_11_1372
*368 FILLER_0_11_1384
*369 FILLER_0_11_1396
*370 FILLER_0_11_1408
*371 FILLER_0_11_1414
*372 FILLER_0_11_1416
*373 FILLER_0_11_1428
*374 FILLER_0_11_1436
*375 FILLER_0_11_914
*376 FILLER_0_11_926
*377 FILLER_0_11_938
*378 FILLER_0_11_950
*379 FILLER_0_11_962
*380 FILLER_0_11_966
*381 FILLER_0_11_968
*382 FILLER_0_11_980
*383 FILLER_0_11_992
*384 FILLER_0_12_1008
*385 FILLER_0_12_1020
*386 FILLER_0_12_1032
*387 FILLER_0_12_1044
*388 FILLER_0_12_1050
*389 FILLER_0_12_1052
*390 FILLER_0_12_1064
*391 FILLER_0_12_1076
*392 FILLER_0_12_1088
*393 FILLER_0_12_1100
*394 FILLER_0_12_1106
*395 FILLER_0_12_1108
*396 FILLER_0_12_1120
*397 FILLER_0_12_1132
*398 FILLER_0_12_1144
*399 FILLER_0_12_1156
*400 FILLER_0_12_1162
*401 FILLER_0_12_1164
*402 FILLER_0_12_1176
*403 FILLER_0_12_1188
*404 FILLER_0_12_1200
*405 FILLER_0_12_1212
*406 FILLER_0_12_1218
*407 FILLER_0_12_1220
*408 FILLER_0_12_1232
*409 FILLER_0_12_1244
*410 FILLER_0_12_1256
*411 FILLER_0_12_1268
*412 FILLER_0_12_1274
*413 FILLER_0_12_1276
*414 FILLER_0_12_1288
*415 FILLER_0_12_1300
*416 FILLER_0_12_1312
*417 FILLER_0_12_1324
*418 FILLER_0_12_1330
*419 FILLER_0_12_1332
*420 FILLER_0_12_1344
*421 FILLER_0_12_1356
*422 FILLER_0_12_1368
*423 FILLER_0_12_1380
*424 FILLER_0_12_1386
*425 FILLER_0_12_1388
*426 FILLER_0_12_1400
*427 FILLER_0_12_1412
*428 FILLER_0_12_1424
*429 FILLER_0_12_1436
*430 FILLER_0_12_914
*431 FILLER_0_12_926
*432 FILLER_0_12_938
*433 FILLER_0_12_940
*434 FILLER_0_12_952
*435 FILLER_0_12_964
*436 FILLER_0_12_976
*437 FILLER_0_12_988
*438 FILLER_0_12_994
*439 FILLER_0_12_996
*440 FILLER_0_13_1004
*441 FILLER_0_13_1016
*442 FILLER_0_13_1022
*443 FILLER_0_13_1024
*444 FILLER_0_13_1036
*445 FILLER_0_13_1048
*446 FILLER_0_13_1060
*447 FILLER_0_13_1072
*448 FILLER_0_13_1078
*449 FILLER_0_13_1080
*450 FILLER_0_13_1092
*451 FILLER_0_13_1104
*452 FILLER_0_13_1116
*453 FILLER_0_13_1128
*454 FILLER_0_13_1134
*455 FILLER_0_13_1136
*456 FILLER_0_13_1148
*457 FILLER_0_13_1160
*458 FILLER_0_13_1172
*459 FILLER_0_13_1184
*460 FILLER_0_13_1190
*461 FILLER_0_13_1192
*462 FILLER_0_13_1204
*463 FILLER_0_13_1216
*464 FILLER_0_13_1228
*465 FILLER_0_13_1240
*466 FILLER_0_13_1246
*467 FILLER_0_13_1248
*468 FILLER_0_13_1260
*469 FILLER_0_13_1272
*470 FILLER_0_13_1284
*471 FILLER_0_13_1296
*472 FILLER_0_13_1302
*473 FILLER_0_13_1304
*474 FILLER_0_13_1316
*475 FILLER_0_13_1328
*476 FILLER_0_13_1340
*477 FILLER_0_13_1352
*478 FILLER_0_13_1358
*479 FILLER_0_13_1360
*480 FILLER_0_13_1372
*481 FILLER_0_13_1384
*482 FILLER_0_13_1396
*483 FILLER_0_13_1408
*484 FILLER_0_13_1414
*485 FILLER_0_13_1416
*486 FILLER_0_13_1428
*487 FILLER_0_13_1436
*488 FILLER_0_13_914
*489 FILLER_0_13_922
*490 FILLER_0_13_926
*491 FILLER_0_13_932
*492 FILLER_0_13_936
*493 FILLER_0_13_948
*494 FILLER_0_13_960
*495 FILLER_0_13_966
*496 FILLER_0_13_968
*497 FILLER_0_13_980
*498 FILLER_0_13_992
*499 FILLER_0_14_1008
*500 FILLER_0_14_1020
*501 FILLER_0_14_1032
*502 FILLER_0_14_1044
*503 FILLER_0_14_1050
*504 FILLER_0_14_1052
*505 FILLER_0_14_1064
*506 FILLER_0_14_1076
*507 FILLER_0_14_1088
*508 FILLER_0_14_1100
*509 FILLER_0_14_1106
*510 FILLER_0_14_1108
*511 FILLER_0_14_1120
*512 FILLER_0_14_1132
*513 FILLER_0_14_1144
*514 FILLER_0_14_1156
*515 FILLER_0_14_1162
*516 FILLER_0_14_1164
*517 FILLER_0_14_1176
*518 FILLER_0_14_1188
*519 FILLER_0_14_1200
*520 FILLER_0_14_1212
*521 FILLER_0_14_1218
*522 FILLER_0_14_1220
*523 FILLER_0_14_1232
*524 FILLER_0_14_1244
*525 FILLER_0_14_1256
*526 FILLER_0_14_1268
*527 FILLER_0_14_1274
*528 FILLER_0_14_1276
*529 FILLER_0_14_1288
*530 FILLER_0_14_1300
*531 FILLER_0_14_1312
*532 FILLER_0_14_1324
*533 FILLER_0_14_1330
*534 FILLER_0_14_1332
*535 FILLER_0_14_1344
*536 FILLER_0_14_1356
*537 FILLER_0_14_1368
*538 FILLER_0_14_1380
*539 FILLER_0_14_1386
*540 FILLER_0_14_1388
*541 FILLER_0_14_1400
*542 FILLER_0_14_1412
*543 FILLER_0_14_1424
*544 FILLER_0_14_1436
*545 FILLER_0_14_914
*546 FILLER_0_14_926
*547 FILLER_0_14_938
*548 FILLER_0_14_940
*549 FILLER_0_14_952
*550 FILLER_0_14_964
*551 FILLER_0_14_976
*552 FILLER_0_14_988
*553 FILLER_0_14_994
*554 FILLER_0_14_996
*555 FILLER_0_15_1004
*556 FILLER_0_15_1016
*557 FILLER_0_15_1022
*558 FILLER_0_15_1024
*559 FILLER_0_15_1036
*560 FILLER_0_15_1048
*561 FILLER_0_15_1060
*562 FILLER_0_15_1072
*563 FILLER_0_15_1078
*564 FILLER_0_15_1080
*565 FILLER_0_15_1092
*566 FILLER_0_15_1104
*567 FILLER_0_15_1116
*568 FILLER_0_15_1128
*569 FILLER_0_15_1134
*570 FILLER_0_15_1136
*571 FILLER_0_15_1148
*572 FILLER_0_15_1160
*573 FILLER_0_15_1172
*574 FILLER_0_15_1184
*575 FILLER_0_15_1190
*576 FILLER_0_15_1192
*577 FILLER_0_15_1204
*578 FILLER_0_15_1216
*579 FILLER_0_15_1228
*580 FILLER_0_15_1240
*581 FILLER_0_15_1246
*582 FILLER_0_15_1248
*583 FILLER_0_15_1260
*584 FILLER_0_15_1272
*585 FILLER_0_15_1284
*586 FILLER_0_15_1296
*587 FILLER_0_15_1302
*588 FILLER_0_15_1304
*589 FILLER_0_15_1316
*590 FILLER_0_15_1328
*591 FILLER_0_15_1340
*592 FILLER_0_15_1352
*593 FILLER_0_15_1358
*594 FILLER_0_15_1360
*595 FILLER_0_15_1372
*596 FILLER_0_15_1384
*597 FILLER_0_15_1396
*598 FILLER_0_15_1408
*599 FILLER_0_15_1414
*600 FILLER_0_15_1416
*601 FILLER_0_15_1428
*602 FILLER_0_15_1436
*603 FILLER_0_15_914
*604 FILLER_0_15_922
*605 FILLER_0_15_927
*606 FILLER_0_15_939
*607 FILLER_0_15_951
*608 FILLER_0_15_963
*609 FILLER_0_15_968
*610 FILLER_0_15_980
*611 FILLER_0_15_992
*612 FILLER_0_16_1008
*613 FILLER_0_16_1020
*614 FILLER_0_16_1032
*615 FILLER_0_16_1044
*616 FILLER_0_16_1050
*617 FILLER_0_16_1052
*618 FILLER_0_16_1064
*619 FILLER_0_16_1076
*620 FILLER_0_16_1088
*621 FILLER_0_16_1100
*622 FILLER_0_16_1106
*623 FILLER_0_16_1108
*624 FILLER_0_16_1120
*625 FILLER_0_16_1132
*626 FILLER_0_16_1144
*627 FILLER_0_16_1156
*628 FILLER_0_16_1162
*629 FILLER_0_16_1164
*630 FILLER_0_16_1176
*631 FILLER_0_16_1188
*632 FILLER_0_16_1200
*633 FILLER_0_16_1212
*634 FILLER_0_16_1218
*635 FILLER_0_16_1220
*636 FILLER_0_16_1232
*637 FILLER_0_16_1244
*638 FILLER_0_16_1256
*639 FILLER_0_16_1268
*640 FILLER_0_16_1274
*641 FILLER_0_16_1276
*642 FILLER_0_16_1288
*643 FILLER_0_16_1300
*644 FILLER_0_16_1312
*645 FILLER_0_16_1324
*646 FILLER_0_16_1330
*647 FILLER_0_16_1332
*648 FILLER_0_16_1344
*649 FILLER_0_16_1356
*650 FILLER_0_16_1368
*651 FILLER_0_16_1380
*652 FILLER_0_16_1386
*653 FILLER_0_16_1388
*654 FILLER_0_16_1400
*655 FILLER_0_16_1412
*656 FILLER_0_16_1424
*657 FILLER_0_16_1436
*658 FILLER_0_16_914
*659 FILLER_0_16_929
*660 FILLER_0_16_937
*661 FILLER_0_16_940
*662 FILLER_0_16_952
*663 FILLER_0_16_964
*664 FILLER_0_16_976
*665 FILLER_0_16_988
*666 FILLER_0_16_994
*667 FILLER_0_16_996
*668 FILLER_0_17_1004
*669 FILLER_0_17_1016
*670 FILLER_0_17_1022
*671 FILLER_0_17_1024
*672 FILLER_0_17_1036
*673 FILLER_0_17_1048
*674 FILLER_0_17_1060
*675 FILLER_0_17_1072
*676 FILLER_0_17_1078
*677 FILLER_0_17_1080
*678 FILLER_0_17_1092
*679 FILLER_0_17_1104
*680 FILLER_0_17_1116
*681 FILLER_0_17_1128
*682 FILLER_0_17_1134
*683 FILLER_0_17_1136
*684 FILLER_0_17_1148
*685 FILLER_0_17_1160
*686 FILLER_0_17_1172
*687 FILLER_0_17_1184
*688 FILLER_0_17_1190
*689 FILLER_0_17_1192
*690 FILLER_0_17_1204
*691 FILLER_0_17_1216
*692 FILLER_0_17_1228
*693 FILLER_0_17_1240
*694 FILLER_0_17_1246
*695 FILLER_0_17_1248
*696 FILLER_0_17_1260
*697 FILLER_0_17_1272
*698 FILLER_0_17_1284
*699 FILLER_0_17_1296
*700 FILLER_0_17_1302
*701 FILLER_0_17_1304
*702 FILLER_0_17_1316
*703 FILLER_0_17_1328
*704 FILLER_0_17_1340
*705 FILLER_0_17_1352
*706 FILLER_0_17_1358
*707 FILLER_0_17_1360
*708 FILLER_0_17_1372
*709 FILLER_0_17_1384
*710 FILLER_0_17_1396
*711 FILLER_0_17_1408
*712 FILLER_0_17_1414
*713 FILLER_0_17_1416
*714 FILLER_0_17_1428
*715 FILLER_0_17_1436
*716 FILLER_0_17_914
*717 FILLER_0_17_922
*718 FILLER_0_17_927
*719 FILLER_0_17_936
*720 FILLER_0_17_948
*721 FILLER_0_17_960
*722 FILLER_0_17_966
*723 FILLER_0_17_968
*724 FILLER_0_17_980
*725 FILLER_0_17_992
*726 FILLER_0_18_1008
*727 FILLER_0_18_1020
*728 FILLER_0_18_1032
*729 FILLER_0_18_1044
*730 FILLER_0_18_1050
*731 FILLER_0_18_1052
*732 FILLER_0_18_1064
*733 FILLER_0_18_1076
*734 FILLER_0_18_1088
*735 FILLER_0_18_1100
*736 FILLER_0_18_1106
*737 FILLER_0_18_1108
*738 FILLER_0_18_1120
*739 FILLER_0_18_1132
*740 FILLER_0_18_1144
*741 FILLER_0_18_1156
*742 FILLER_0_18_1162
*743 FILLER_0_18_1164
*744 FILLER_0_18_1176
*745 FILLER_0_18_1188
*746 FILLER_0_18_1200
*747 FILLER_0_18_1212
*748 FILLER_0_18_1218
*749 FILLER_0_18_1220
*750 FILLER_0_18_1232
*751 FILLER_0_18_1244
*752 FILLER_0_18_1256
*753 FILLER_0_18_1268
*754 FILLER_0_18_1274
*755 FILLER_0_18_1276
*756 FILLER_0_18_1288
*757 FILLER_0_18_1300
*758 FILLER_0_18_1312
*759 FILLER_0_18_1324
*760 FILLER_0_18_1330
*761 FILLER_0_18_1332
*762 FILLER_0_18_1344
*763 FILLER_0_18_1356
*764 FILLER_0_18_1368
*765 FILLER_0_18_1380
*766 FILLER_0_18_1386
*767 FILLER_0_18_1388
*768 FILLER_0_18_1400
*769 FILLER_0_18_1412
*770 FILLER_0_18_1424
*771 FILLER_0_18_1436
*772 FILLER_0_18_914
*773 FILLER_0_18_926
*774 FILLER_0_18_938
*775 FILLER_0_18_940
*776 FILLER_0_18_952
*777 FILLER_0_18_964
*778 FILLER_0_18_976
*779 FILLER_0_18_988
*780 FILLER_0_18_994
*781 FILLER_0_18_996
*782 FILLER_0_19_1004
*783 FILLER_0_19_1016
*784 FILLER_0_19_1022
*785 FILLER_0_19_1024
*786 FILLER_0_19_1036
*787 FILLER_0_19_1048
*788 FILLER_0_19_1060
*789 FILLER_0_19_1072
*790 FILLER_0_19_1078
*791 FILLER_0_19_1080
*792 FILLER_0_19_1092
*793 FILLER_0_19_1104
*794 FILLER_0_19_1116
*795 FILLER_0_19_1128
*796 FILLER_0_19_1134
*797 FILLER_0_19_1136
*798 FILLER_0_19_1148
*799 FILLER_0_19_1160
*800 FILLER_0_19_1172
*801 FILLER_0_19_1184
*802 FILLER_0_19_1190
*803 FILLER_0_19_1192
*804 FILLER_0_19_1204
*805 FILLER_0_19_1216
*806 FILLER_0_19_1228
*807 FILLER_0_19_1240
*808 FILLER_0_19_1246
*809 FILLER_0_19_1248
*810 FILLER_0_19_1260
*811 FILLER_0_19_1272
*812 FILLER_0_19_1284
*813 FILLER_0_19_1296
*814 FILLER_0_19_1302
*815 FILLER_0_19_1304
*816 FILLER_0_19_1316
*817 FILLER_0_19_1328
*818 FILLER_0_19_1340
*819 FILLER_0_19_1352
*820 FILLER_0_19_1358
*821 FILLER_0_19_1360
*822 FILLER_0_19_1372
*823 FILLER_0_19_1384
*824 FILLER_0_19_1396
*825 FILLER_0_19_1408
*826 FILLER_0_19_1414
*827 FILLER_0_19_1416
*828 FILLER_0_19_1428
*829 FILLER_0_19_1436
*830 FILLER_0_19_914
*831 FILLER_0_19_926
*832 FILLER_0_19_938
*833 FILLER_0_19_950
*834 FILLER_0_19_962
*835 FILLER_0_19_966
*836 FILLER_0_19_968
*837 FILLER_0_19_980
*838 FILLER_0_19_992
*839 FILLER_0_1_1004
*840 FILLER_0_1_1016
*841 FILLER_0_1_1022
*842 FILLER_0_1_1024
*843 FILLER_0_1_1036
*844 FILLER_0_1_1048
*845 FILLER_0_1_1060
*846 FILLER_0_1_1072
*847 FILLER_0_1_1078
*848 FILLER_0_1_1080
*849 FILLER_0_1_1092
*850 FILLER_0_1_1104
*851 FILLER_0_1_1116
*852 FILLER_0_1_1128
*853 FILLER_0_1_1134
*854 FILLER_0_1_1136
*855 FILLER_0_1_1148
*856 FILLER_0_1_1160
*857 FILLER_0_1_1172
*858 FILLER_0_1_1184
*859 FILLER_0_1_1190
*860 FILLER_0_1_1192
*861 FILLER_0_1_1204
*862 FILLER_0_1_1216
*863 FILLER_0_1_1228
*864 FILLER_0_1_1240
*865 FILLER_0_1_1246
*866 FILLER_0_1_1248
*867 FILLER_0_1_1260
*868 FILLER_0_1_1272
*869 FILLER_0_1_1284
*870 FILLER_0_1_1296
*871 FILLER_0_1_1302
*872 FILLER_0_1_1304
*873 FILLER_0_1_1316
*874 FILLER_0_1_1328
*875 FILLER_0_1_1340
*876 FILLER_0_1_1352
*877 FILLER_0_1_1358
*878 FILLER_0_1_1360
*879 FILLER_0_1_1372
*880 FILLER_0_1_1384
*881 FILLER_0_1_1396
*882 FILLER_0_1_1408
*883 FILLER_0_1_1414
*884 FILLER_0_1_1416
*885 FILLER_0_1_1428
*886 FILLER_0_1_1436
*887 FILLER_0_1_914
*888 FILLER_0_1_926
*889 FILLER_0_1_938
*890 FILLER_0_1_950
*891 FILLER_0_1_962
*892 FILLER_0_1_966
*893 FILLER_0_1_968
*894 FILLER_0_1_980
*895 FILLER_0_1_992
*896 FILLER_0_20_1001
*897 FILLER_0_20_1013
*898 FILLER_0_20_1025
*899 FILLER_0_20_1037
*900 FILLER_0_20_1049
*901 FILLER_0_20_1052
*902 FILLER_0_20_1064
*903 FILLER_0_20_1076
*904 FILLER_0_20_1088
*905 FILLER_0_20_1100
*906 FILLER_0_20_1106
*907 FILLER_0_20_1108
*908 FILLER_0_20_1120
*909 FILLER_0_20_1132
*910 FILLER_0_20_1144
*911 FILLER_0_20_1156
*912 FILLER_0_20_1162
*913 FILLER_0_20_1164
*914 FILLER_0_20_1176
*915 FILLER_0_20_1188
*916 FILLER_0_20_1200
*917 FILLER_0_20_1212
*918 FILLER_0_20_1218
*919 FILLER_0_20_1220
*920 FILLER_0_20_1232
*921 FILLER_0_20_1244
*922 FILLER_0_20_1256
*923 FILLER_0_20_1268
*924 FILLER_0_20_1274
*925 FILLER_0_20_1276
*926 FILLER_0_20_1288
*927 FILLER_0_20_1300
*928 FILLER_0_20_1312
*929 FILLER_0_20_1324
*930 FILLER_0_20_1330
*931 FILLER_0_20_1332
*932 FILLER_0_20_1344
*933 FILLER_0_20_1356
*934 FILLER_0_20_1368
*935 FILLER_0_20_1380
*936 FILLER_0_20_1386
*937 FILLER_0_20_1388
*938 FILLER_0_20_1400
*939 FILLER_0_20_1412
*940 FILLER_0_20_1424
*941 FILLER_0_20_1436
*942 FILLER_0_20_918
*943 FILLER_0_20_930
*944 FILLER_0_20_938
*945 FILLER_0_20_940
*946 FILLER_0_20_952
*947 FILLER_0_20_964
*948 FILLER_0_20_976
*949 FILLER_0_20_988
*950 FILLER_0_20_994
*951 FILLER_0_20_996
*952 FILLER_0_21_1004
*953 FILLER_0_21_1016
*954 FILLER_0_21_1022
*955 FILLER_0_21_1024
*956 FILLER_0_21_1036
*957 FILLER_0_21_1048
*958 FILLER_0_21_1060
*959 FILLER_0_21_1072
*960 FILLER_0_21_1078
*961 FILLER_0_21_1080
*962 FILLER_0_21_1092
*963 FILLER_0_21_1104
*964 FILLER_0_21_1116
*965 FILLER_0_21_1128
*966 FILLER_0_21_1134
*967 FILLER_0_21_1136
*968 FILLER_0_21_1148
*969 FILLER_0_21_1160
*970 FILLER_0_21_1172
*971 FILLER_0_21_1184
*972 FILLER_0_21_1190
*973 FILLER_0_21_1192
*974 FILLER_0_21_1204
*975 FILLER_0_21_1216
*976 FILLER_0_21_1228
*977 FILLER_0_21_1240
*978 FILLER_0_21_1246
*979 FILLER_0_21_1248
*980 FILLER_0_21_1260
*981 FILLER_0_21_1272
*982 FILLER_0_21_1284
*983 FILLER_0_21_1296
*984 FILLER_0_21_1302
*985 FILLER_0_21_1304
*986 FILLER_0_21_1316
*987 FILLER_0_21_1328
*988 FILLER_0_21_1340
*989 FILLER_0_21_1352
*990 FILLER_0_21_1358
*991 FILLER_0_21_1360
*992 FILLER_0_21_1372
*993 FILLER_0_21_1384
*994 FILLER_0_21_1396
*995 FILLER_0_21_1408
*996 FILLER_0_21_1414
*997 FILLER_0_21_1416
*998 FILLER_0_21_1428
*999 FILLER_0_21_1436
*1000 FILLER_0_21_918
*1001 FILLER_0_21_930
*1002 FILLER_0_21_942
*1003 FILLER_0_21_954
*1004 FILLER_0_21_966
*1005 FILLER_0_21_968
*1006 FILLER_0_21_980
*1007 FILLER_0_21_992
*1008 FILLER_0_22_1008
*1009 FILLER_0_22_1020
*1010 FILLER_0_22_1032
*1011 FILLER_0_22_1044
*1012 FILLER_0_22_1050
*1013 FILLER_0_22_1052
*1014 FILLER_0_22_1064
*1015 FILLER_0_22_1076
*1016 FILLER_0_22_1088
*1017 FILLER_0_22_1100
*1018 FILLER_0_22_1106
*1019 FILLER_0_22_1108
*1020 FILLER_0_22_1120
*1021 FILLER_0_22_1132
*1022 FILLER_0_22_1144
*1023 FILLER_0_22_1156
*1024 FILLER_0_22_1162
*1025 FILLER_0_22_1164
*1026 FILLER_0_22_1176
*1027 FILLER_0_22_1188
*1028 FILLER_0_22_1200
*1029 FILLER_0_22_1212
*1030 FILLER_0_22_1218
*1031 FILLER_0_22_1220
*1032 FILLER_0_22_1232
*1033 FILLER_0_22_1244
*1034 FILLER_0_22_1256
*1035 FILLER_0_22_1268
*1036 FILLER_0_22_1274
*1037 FILLER_0_22_1276
*1038 FILLER_0_22_1288
*1039 FILLER_0_22_1300
*1040 FILLER_0_22_1312
*1041 FILLER_0_22_1324
*1042 FILLER_0_22_1330
*1043 FILLER_0_22_1332
*1044 FILLER_0_22_1344
*1045 FILLER_0_22_1356
*1046 FILLER_0_22_1368
*1047 FILLER_0_22_1380
*1048 FILLER_0_22_1386
*1049 FILLER_0_22_1388
*1050 FILLER_0_22_1400
*1051 FILLER_0_22_1412
*1052 FILLER_0_22_1424
*1053 FILLER_0_22_1436
*1054 FILLER_0_22_914
*1055 FILLER_0_22_926
*1056 FILLER_0_22_938
*1057 FILLER_0_22_940
*1058 FILLER_0_22_952
*1059 FILLER_0_22_964
*1060 FILLER_0_22_976
*1061 FILLER_0_22_988
*1062 FILLER_0_22_994
*1063 FILLER_0_22_996
*1064 FILLER_0_23_1004
*1065 FILLER_0_23_1016
*1066 FILLER_0_23_1022
*1067 FILLER_0_23_1024
*1068 FILLER_0_23_1036
*1069 FILLER_0_23_1048
*1070 FILLER_0_23_1060
*1071 FILLER_0_23_1072
*1072 FILLER_0_23_1078
*1073 FILLER_0_23_1080
*1074 FILLER_0_23_1092
*1075 FILLER_0_23_1104
*1076 FILLER_0_23_1116
*1077 FILLER_0_23_1128
*1078 FILLER_0_23_1134
*1079 FILLER_0_23_1136
*1080 FILLER_0_23_1148
*1081 FILLER_0_23_1160
*1082 FILLER_0_23_1172
*1083 FILLER_0_23_1184
*1084 FILLER_0_23_1190
*1085 FILLER_0_23_1192
*1086 FILLER_0_23_1204
*1087 FILLER_0_23_1216
*1088 FILLER_0_23_1228
*1089 FILLER_0_23_1240
*1090 FILLER_0_23_1246
*1091 FILLER_0_23_1248
*1092 FILLER_0_23_1260
*1093 FILLER_0_23_1272
*1094 FILLER_0_23_1284
*1095 FILLER_0_23_1296
*1096 FILLER_0_23_1302
*1097 FILLER_0_23_1304
*1098 FILLER_0_23_1316
*1099 FILLER_0_23_1328
*1100 FILLER_0_23_1340
*1101 FILLER_0_23_1352
*1102 FILLER_0_23_1358
*1103 FILLER_0_23_1360
*1104 FILLER_0_23_1372
*1105 FILLER_0_23_1384
*1106 FILLER_0_23_1396
*1107 FILLER_0_23_1408
*1108 FILLER_0_23_1414
*1109 FILLER_0_23_1416
*1110 FILLER_0_23_1428
*1111 FILLER_0_23_1436
*1112 FILLER_0_23_914
*1113 FILLER_0_23_926
*1114 FILLER_0_23_938
*1115 FILLER_0_23_950
*1116 FILLER_0_23_962
*1117 FILLER_0_23_966
*1118 FILLER_0_23_968
*1119 FILLER_0_23_980
*1120 FILLER_0_23_992
*1121 FILLER_0_24_1008
*1122 FILLER_0_24_1020
*1123 FILLER_0_24_1032
*1124 FILLER_0_24_1044
*1125 FILLER_0_24_1050
*1126 FILLER_0_24_1052
*1127 FILLER_0_24_1064
*1128 FILLER_0_24_1076
*1129 FILLER_0_24_1088
*1130 FILLER_0_24_1100
*1131 FILLER_0_24_1106
*1132 FILLER_0_24_1108
*1133 FILLER_0_24_1120
*1134 FILLER_0_24_1132
*1135 FILLER_0_24_1144
*1136 FILLER_0_24_1156
*1137 FILLER_0_24_1162
*1138 FILLER_0_24_1164
*1139 FILLER_0_24_1176
*1140 FILLER_0_24_1188
*1141 FILLER_0_24_1200
*1142 FILLER_0_24_1212
*1143 FILLER_0_24_1218
*1144 FILLER_0_24_1220
*1145 FILLER_0_24_1232
*1146 FILLER_0_24_1244
*1147 FILLER_0_24_1256
*1148 FILLER_0_24_1268
*1149 FILLER_0_24_1274
*1150 FILLER_0_24_1276
*1151 FILLER_0_24_1288
*1152 FILLER_0_24_1300
*1153 FILLER_0_24_1312
*1154 FILLER_0_24_1324
*1155 FILLER_0_24_1330
*1156 FILLER_0_24_1332
*1157 FILLER_0_24_1344
*1158 FILLER_0_24_1356
*1159 FILLER_0_24_1368
*1160 FILLER_0_24_1380
*1161 FILLER_0_24_1386
*1162 FILLER_0_24_1388
*1163 FILLER_0_24_1400
*1164 FILLER_0_24_1412
*1165 FILLER_0_24_1424
*1166 FILLER_0_24_1436
*1167 FILLER_0_24_914
*1168 FILLER_0_24_923
*1169 FILLER_0_24_935
*1170 FILLER_0_24_940
*1171 FILLER_0_24_952
*1172 FILLER_0_24_964
*1173 FILLER_0_24_976
*1174 FILLER_0_24_988
*1175 FILLER_0_24_994
*1176 FILLER_0_24_996
*1177 FILLER_0_25_1004
*1178 FILLER_0_25_1016
*1179 FILLER_0_25_1022
*1180 FILLER_0_25_1024
*1181 FILLER_0_25_1036
*1182 FILLER_0_25_1048
*1183 FILLER_0_25_1060
*1184 FILLER_0_25_1072
*1185 FILLER_0_25_1078
*1186 FILLER_0_25_1080
*1187 FILLER_0_25_1092
*1188 FILLER_0_25_1104
*1189 FILLER_0_25_1116
*1190 FILLER_0_25_1128
*1191 FILLER_0_25_1134
*1192 FILLER_0_25_1136
*1193 FILLER_0_25_1148
*1194 FILLER_0_25_1160
*1195 FILLER_0_25_1172
*1196 FILLER_0_25_1184
*1197 FILLER_0_25_1190
*1198 FILLER_0_25_1192
*1199 FILLER_0_25_1204
*1200 FILLER_0_25_1216
*1201 FILLER_0_25_1228
*1202 FILLER_0_25_1240
*1203 FILLER_0_25_1246
*1204 FILLER_0_25_1248
*1205 FILLER_0_25_1260
*1206 FILLER_0_25_1272
*1207 FILLER_0_25_1284
*1208 FILLER_0_25_1296
*1209 FILLER_0_25_1302
*1210 FILLER_0_25_1304
*1211 FILLER_0_25_1316
*1212 FILLER_0_25_1328
*1213 FILLER_0_25_1340
*1214 FILLER_0_25_1352
*1215 FILLER_0_25_1358
*1216 FILLER_0_25_1360
*1217 FILLER_0_25_1372
*1218 FILLER_0_25_1384
*1219 FILLER_0_25_1396
*1220 FILLER_0_25_1408
*1221 FILLER_0_25_1414
*1222 FILLER_0_25_1416
*1223 FILLER_0_25_1428
*1224 FILLER_0_25_1436
*1225 FILLER_0_25_914
*1226 FILLER_0_25_926
*1227 FILLER_0_25_938
*1228 FILLER_0_25_950
*1229 FILLER_0_25_962
*1230 FILLER_0_25_966
*1231 FILLER_0_25_968
*1232 FILLER_0_25_980
*1233 FILLER_0_25_992
*1234 FILLER_0_26_1008
*1235 FILLER_0_26_1020
*1236 FILLER_0_26_1032
*1237 FILLER_0_26_1044
*1238 FILLER_0_26_1050
*1239 FILLER_0_26_1052
*1240 FILLER_0_26_1064
*1241 FILLER_0_26_1076
*1242 FILLER_0_26_1088
*1243 FILLER_0_26_1100
*1244 FILLER_0_26_1106
*1245 FILLER_0_26_1108
*1246 FILLER_0_26_1120
*1247 FILLER_0_26_1132
*1248 FILLER_0_26_1144
*1249 FILLER_0_26_1156
*1250 FILLER_0_26_1162
*1251 FILLER_0_26_1164
*1252 FILLER_0_26_1176
*1253 FILLER_0_26_1188
*1254 FILLER_0_26_1200
*1255 FILLER_0_26_1212
*1256 FILLER_0_26_1218
*1257 FILLER_0_26_1220
*1258 FILLER_0_26_1232
*1259 FILLER_0_26_1244
*1260 FILLER_0_26_1256
*1261 FILLER_0_26_1268
*1262 FILLER_0_26_1274
*1263 FILLER_0_26_1276
*1264 FILLER_0_26_1288
*1265 FILLER_0_26_1300
*1266 FILLER_0_26_1312
*1267 FILLER_0_26_1324
*1268 FILLER_0_26_1330
*1269 FILLER_0_26_1332
*1270 FILLER_0_26_1344
*1271 FILLER_0_26_1356
*1272 FILLER_0_26_1368
*1273 FILLER_0_26_1380
*1274 FILLER_0_26_1386
*1275 FILLER_0_26_1388
*1276 FILLER_0_26_1400
*1277 FILLER_0_26_1412
*1278 FILLER_0_26_1424
*1279 FILLER_0_26_1436
*1280 FILLER_0_26_914
*1281 FILLER_0_26_920
*1282 FILLER_0_26_928
*1283 FILLER_0_26_936
*1284 FILLER_0_26_940
*1285 FILLER_0_26_952
*1286 FILLER_0_26_964
*1287 FILLER_0_26_976
*1288 FILLER_0_26_988
*1289 FILLER_0_26_994
*1290 FILLER_0_26_996
*1291 FILLER_0_27_1004
*1292 FILLER_0_27_1016
*1293 FILLER_0_27_1022
*1294 FILLER_0_27_1024
*1295 FILLER_0_27_1036
*1296 FILLER_0_27_1048
*1297 FILLER_0_27_1060
*1298 FILLER_0_27_1072
*1299 FILLER_0_27_1078
*1300 FILLER_0_27_1080
*1301 FILLER_0_27_1092
*1302 FILLER_0_27_1104
*1303 FILLER_0_27_1116
*1304 FILLER_0_27_1128
*1305 FILLER_0_27_1134
*1306 FILLER_0_27_1136
*1307 FILLER_0_27_1148
*1308 FILLER_0_27_1160
*1309 FILLER_0_27_1172
*1310 FILLER_0_27_1184
*1311 FILLER_0_27_1190
*1312 FILLER_0_27_1192
*1313 FILLER_0_27_1204
*1314 FILLER_0_27_1216
*1315 FILLER_0_27_1228
*1316 FILLER_0_27_1240
*1317 FILLER_0_27_1246
*1318 FILLER_0_27_1248
*1319 FILLER_0_27_1260
*1320 FILLER_0_27_1272
*1321 FILLER_0_27_1284
*1322 FILLER_0_27_1296
*1323 FILLER_0_27_1302
*1324 FILLER_0_27_1304
*1325 FILLER_0_27_1316
*1326 FILLER_0_27_1328
*1327 FILLER_0_27_1340
*1328 FILLER_0_27_1352
*1329 FILLER_0_27_1358
*1330 FILLER_0_27_1360
*1331 FILLER_0_27_1372
*1332 FILLER_0_27_1384
*1333 FILLER_0_27_1396
*1334 FILLER_0_27_1408
*1335 FILLER_0_27_1414
*1336 FILLER_0_27_1416
*1337 FILLER_0_27_1428
*1338 FILLER_0_27_1436
*1339 FILLER_0_27_914
*1340 FILLER_0_27_931
*1341 FILLER_0_27_943
*1342 FILLER_0_27_955
*1343 FILLER_0_27_968
*1344 FILLER_0_27_980
*1345 FILLER_0_27_992
*1346 FILLER_0_28_1008
*1347 FILLER_0_28_1020
*1348 FILLER_0_28_1032
*1349 FILLER_0_28_1044
*1350 FILLER_0_28_1050
*1351 FILLER_0_28_1052
*1352 FILLER_0_28_1064
*1353 FILLER_0_28_1076
*1354 FILLER_0_28_1088
*1355 FILLER_0_28_1100
*1356 FILLER_0_28_1106
*1357 FILLER_0_28_1108
*1358 FILLER_0_28_1120
*1359 FILLER_0_28_1132
*1360 FILLER_0_28_1144
*1361 FILLER_0_28_1156
*1362 FILLER_0_28_1162
*1363 FILLER_0_28_1164
*1364 FILLER_0_28_1176
*1365 FILLER_0_28_1188
*1366 FILLER_0_28_1200
*1367 FILLER_0_28_1212
*1368 FILLER_0_28_1218
*1369 FILLER_0_28_1220
*1370 FILLER_0_28_1232
*1371 FILLER_0_28_1244
*1372 FILLER_0_28_1256
*1373 FILLER_0_28_1268
*1374 FILLER_0_28_1274
*1375 FILLER_0_28_1276
*1376 FILLER_0_28_1288
*1377 FILLER_0_28_1300
*1378 FILLER_0_28_1312
*1379 FILLER_0_28_1324
*1380 FILLER_0_28_1330
*1381 FILLER_0_28_1332
*1382 FILLER_0_28_1344
*1383 FILLER_0_28_1356
*1384 FILLER_0_28_1368
*1385 FILLER_0_28_1380
*1386 FILLER_0_28_1386
*1387 FILLER_0_28_1388
*1388 FILLER_0_28_1400
*1389 FILLER_0_28_1412
*1390 FILLER_0_28_1424
*1391 FILLER_0_28_1436
*1392 FILLER_0_28_914
*1393 FILLER_0_28_926
*1394 FILLER_0_28_938
*1395 FILLER_0_28_940
*1396 FILLER_0_28_952
*1397 FILLER_0_28_964
*1398 FILLER_0_28_976
*1399 FILLER_0_28_988
*1400 FILLER_0_28_994
*1401 FILLER_0_28_996
*1402 FILLER_0_29_1004
*1403 FILLER_0_29_1016
*1404 FILLER_0_29_1022
*1405 FILLER_0_29_1024
*1406 FILLER_0_29_1036
*1407 FILLER_0_29_1048
*1408 FILLER_0_29_1060
*1409 FILLER_0_29_1072
*1410 FILLER_0_29_1078
*1411 FILLER_0_29_1080
*1412 FILLER_0_29_1092
*1413 FILLER_0_29_1104
*1414 FILLER_0_29_1116
*1415 FILLER_0_29_1128
*1416 FILLER_0_29_1134
*1417 FILLER_0_29_1136
*1418 FILLER_0_29_1148
*1419 FILLER_0_29_1160
*1420 FILLER_0_29_1172
*1421 FILLER_0_29_1184
*1422 FILLER_0_29_1190
*1423 FILLER_0_29_1192
*1424 FILLER_0_29_1204
*1425 FILLER_0_29_1216
*1426 FILLER_0_29_1228
*1427 FILLER_0_29_1240
*1428 FILLER_0_29_1246
*1429 FILLER_0_29_1248
*1430 FILLER_0_29_1260
*1431 FILLER_0_29_1272
*1432 FILLER_0_29_1284
*1433 FILLER_0_29_1296
*1434 FILLER_0_29_1302
*1435 FILLER_0_29_1304