*SPEF "ieee 1481-1999"
*DESIGN "tt_um_BNNNeuron"
*DATE "11:11:11 Fri 11 11, 1111"
*VENDOR "OpenRCX"
*PROGRAM "Parallel Extraction"
*VERSION "1.0"
*DESIGN_FLOW "NAME_SCOPE LOCAL" "PIN_CAP NONE"
*DIVIDER /
*DELIMITER :
*BUS_DELIMITER []
*T_UNIT 1 NS
*C_UNIT 1 PF
*R_UNIT 1 OHM
*L_UNIT 1 HENRY

*NAME_MAP
*3 clk
*4 ena
*5 rst_n
*6 ui_in[0]
*7 ui_in[1]
*8 ui_in[2]
*9 ui_in[3]
*10 ui_in[4]
*11 ui_in[5]
*12 ui_in[6]
*13 ui_in[7]
*14 uio_in[0]
*15 uio_in[1]
*16 uio_in[2]
*17 uio_in[3]
*18 uio_in[4]
*19 uio_in[5]
*20 uio_in[6]
*21 uio_in[7]
*22 net19
*23 net20
*24 net21
*25 net22
*26 net38
*27 net39
*28 net40
*29 net41
*30 net23
*31 net24
*32 net25
*33 net26
*34 net27
*35 net28
*36 net29
*37 net30
*38 net31
*39 net32
*40 net33
*41 net34
*42 net35
*43 net36
*44 net37
*45 uo_out[7]
*46 _000_
*47 _001_
*48 _002_
*49 _003_
*50 _004_
*51 _005_
*52 _006_
*53 _007_
*54 _008_
*55 _009_
*56 _010_
*57 _011_
*58 _012_
*59 _013_
*60 _014_
*61 _015_
*62 _016_
*63 _017_
*64 _018_
*65 _019_
*66 _020_
*67 _021_
*68 _022_
*69 _023_
*70 _024_
*71 _025_
*72 _026_
*73 _027_
*74 _028_
*75 _029_
*76 _030_
*77 _031_
*78 _032_
*79 _033_
*80 _034_
*81 _035_
*82 _036_
*83 _037_
*84 _038_
*85 _039_
*86 _040_
*87 _041_
*88 _042_
*89 _043_
*90 _044_
*91 _045_
*92 _046_
*93 _047_
*94 _048_
*95 _049_
*96 _050_
*97 _051_
*98 _052_
*99 _053_
*100 _054_
*101 clknet_0_clk
*102 clknet_1_0__leaf_clk
*103 clknet_1_1__leaf_clk
*104 net1
*105 net10
*106 net11
*107 net12
*108 net13
*109 net14
*110 net15
*111 net16
*112 net17
*113 net18
*114 net2
*115 net3
*116 net4
*117 net42
*118 net5
*119 net6
*120 net7
*121 net8
*122 net9
*123 neuron_inst\.accumulated_result\[0\]
*124 neuron_inst\.accumulated_result\[1\]
*125 neuron_inst\.accumulated_result\[2\]
*126 neuron_inst\.accumulated_result\[3\]
*127 neuron_inst\.accumulated_result\[4\]
*128 neuron_inst\.accumulated_result\[5\]
*129 neuron_inst\.accumulated_result\[6\]
*130 neuron_inst\.accumulated_result\[7\]
*131 neuron_inst\.o_neuron
*132 neuron_inst\.xnor_result\[0\]
*133 neuron_inst\.xnor_result\[1\]
*134 neuron_inst\.xnor_result\[2\]
*135 neuron_inst\.xnor_result\[3\]
*136 neuron_inst\.xnor_result\[4\]
*137 neuron_inst\.xnor_result\[5\]
*138 neuron_inst\.xnor_result\[6\]
*139 neuron_inst\.xnor_result\[7\]
*140 FILLER_0_0_109
*141 FILLER_0_0_113
*142 FILLER_0_0_125
*143 FILLER_0_0_137
*144 FILLER_0_0_141
*145 FILLER_0_0_15
*146 FILLER_0_0_153
*147 FILLER_0_0_165
*148 FILLER_0_0_169
*149 FILLER_0_0_181
*150 FILLER_0_0_193
*151 FILLER_0_0_197
*152 FILLER_0_0_209
*153 FILLER_0_0_221
*154 FILLER_0_0_225
*155 FILLER_0_0_237
*156 FILLER_0_0_249
*157 FILLER_0_0_253
*158 FILLER_0_0_265
*159 FILLER_0_0_27
*160 FILLER_0_0_277
*161 FILLER_0_0_281
*162 FILLER_0_0_29
*163 FILLER_0_0_293
*164 FILLER_0_0_3
*165 FILLER_0_0_305
*166 FILLER_0_0_309
*167 FILLER_0_0_321
*168 FILLER_0_0_333
*169 FILLER_0_0_337
*170 FILLER_0_0_349
*171 FILLER_0_0_41
*172 FILLER_0_0_53
*173 FILLER_0_0_57
*174 FILLER_0_0_69
*175 FILLER_0_0_81
*176 FILLER_0_0_85
*177 FILLER_0_0_97
*178 FILLER_0_10_109
*179 FILLER_0_10_121
*180 FILLER_0_10_133
*181 FILLER_0_10_139
*182 FILLER_0_10_141
*183 FILLER_0_10_15
*184 FILLER_0_10_153
*185 FILLER_0_10_165
*186 FILLER_0_10_177
*187 FILLER_0_10_189
*188 FILLER_0_10_195
*189 FILLER_0_10_197
*190 FILLER_0_10_209
*191 FILLER_0_10_221
*192 FILLER_0_10_233
*193 FILLER_0_10_245
*194 FILLER_0_10_251
*195 FILLER_0_10_253
*196 FILLER_0_10_265
*197 FILLER_0_10_27
*198 FILLER_0_10_277
*199 FILLER_0_10_289
*200 FILLER_0_10_29
*201 FILLER_0_10_3
*202 FILLER_0_10_301
*203 FILLER_0_10_307
*204 FILLER_0_10_309
*205 FILLER_0_10_321
*206 FILLER_0_10_333
*207 FILLER_0_10_345
*208 FILLER_0_10_41
*209 FILLER_0_10_53
*210 FILLER_0_10_65
*211 FILLER_0_10_77
*212 FILLER_0_10_83
*213 FILLER_0_10_85
*214 FILLER_0_10_97
*215 FILLER_0_11_105
*216 FILLER_0_11_111
*217 FILLER_0_11_113
*218 FILLER_0_11_125
*219 FILLER_0_11_137
*220 FILLER_0_11_149
*221 FILLER_0_11_15
*222 FILLER_0_11_161
*223 FILLER_0_11_167
*224 FILLER_0_11_169
*225 FILLER_0_11_181
*226 FILLER_0_11_193
*227 FILLER_0_11_205
*228 FILLER_0_11_217
*229 FILLER_0_11_223
*230 FILLER_0_11_225
*231 FILLER_0_11_237
*232 FILLER_0_11_249
*233 FILLER_0_11_261
*234 FILLER_0_11_27
*235 FILLER_0_11_273
*236 FILLER_0_11_279
*237 FILLER_0_11_281
*238 FILLER_0_11_293
*239 FILLER_0_11_3
*240 FILLER_0_11_305
*241 FILLER_0_11_317
*242 FILLER_0_11_329
*243 FILLER_0_11_335
*244 FILLER_0_11_337
*245 FILLER_0_11_349
*246 FILLER_0_11_39
*247 FILLER_0_11_51
*248 FILLER_0_11_55
*249 FILLER_0_11_57
*250 FILLER_0_11_69
*251 FILLER_0_11_81
*252 FILLER_0_11_93
*253 FILLER_0_12_109
*254 FILLER_0_12_121
*255 FILLER_0_12_133
*256 FILLER_0_12_139
*257 FILLER_0_12_141
*258 FILLER_0_12_15
*259 FILLER_0_12_153
*260 FILLER_0_12_165
*261 FILLER_0_12_177
*262 FILLER_0_12_189
*263 FILLER_0_12_195
*264 FILLER_0_12_197
*265 FILLER_0_12_209
*266 FILLER_0_12_221
*267 FILLER_0_12_233
*268 FILLER_0_12_245
*269 FILLER_0_12_251
*270 FILLER_0_12_253
*271 FILLER_0_12_265
*272 FILLER_0_12_27
*273 FILLER_0_12_277
*274 FILLER_0_12_289
*275 FILLER_0_12_29
*276 FILLER_0_12_3
*277 FILLER_0_12_301
*278 FILLER_0_12_307
*279 FILLER_0_12_309
*280 FILLER_0_12_321
*281 FILLER_0_12_333
*282 FILLER_0_12_345
*283 FILLER_0_12_41
*284 FILLER_0_12_53
*285 FILLER_0_12_65
*286 FILLER_0_12_77
*287 FILLER_0_12_83
*288 FILLER_0_12_85
*289 FILLER_0_12_97
*290 FILLER_0_13_105
*291 FILLER_0_13_111
*292 FILLER_0_13_113
*293 FILLER_0_13_125
*294 FILLER_0_13_137
*295 FILLER_0_13_149
*296 FILLER_0_13_15
*297 FILLER_0_13_161
*298 FILLER_0_13_167
*299 FILLER_0_13_169
*300 FILLER_0_13_181
*301 FILLER_0_13_193
*302 FILLER_0_13_205
*303 FILLER_0_13_217
*304 FILLER_0_13_223
*305 FILLER_0_13_225
*306 FILLER_0_13_237
*307 FILLER_0_13_249
*308 FILLER_0_13_261
*309 FILLER_0_13_27
*310 FILLER_0_13_273
*311 FILLER_0_13_279
*312 FILLER_0_13_281
*313 FILLER_0_13_293
*314 FILLER_0_13_3
*315 FILLER_0_13_305
*316 FILLER_0_13_317
*317 FILLER_0_13_329
*318 FILLER_0_13_335
*319 FILLER_0_13_337
*320 FILLER_0_13_349
*321 FILLER_0_13_39
*322 FILLER_0_13_51
*323 FILLER_0_13_55
*324 FILLER_0_13_57
*325 FILLER_0_13_69
*326 FILLER_0_13_81
*327 FILLER_0_13_93
*328 FILLER_0_14_109
*329 FILLER_0_14_121
*330 FILLER_0_14_133
*331 FILLER_0_14_139
*332 FILLER_0_14_141
*333 FILLER_0_14_15
*334 FILLER_0_14_153
*335 FILLER_0_14_165
*336 FILLER_0_14_177
*337 FILLER_0_14_189
*338 FILLER_0_14_195
*339 FILLER_0_14_197
*340 FILLER_0_14_209
*341 FILLER_0_14_221
*342 FILLER_0_14_233
*343 FILLER_0_14_245
*344 FILLER_0_14_251
*345 FILLER_0_14_253
*346 FILLER_0_14_265
*347 FILLER_0_14_27
*348 FILLER_0_14_277
*349 FILLER_0_14_289
*350 FILLER_0_14_29
*351 FILLER_0_14_3
*352 FILLER_0_14_301
*353 FILLER_0_14_307
*354 FILLER_0_14_309
*355 FILLER_0_14_321
*356 FILLER_0_14_333
*357 FILLER_0_14_345
*358 FILLER_0_14_41
*359 FILLER_0_14_53
*360 FILLER_0_14_65
*361 FILLER_0_14_77
*362 FILLER_0_14_83
*363 FILLER_0_14_85
*364 FILLER_0_14_97
*365 FILLER_0_15_105
*366 FILLER_0_15_111
*367 FILLER_0_15_113
*368 FILLER_0_15_125
*369 FILLER_0_15_137
*370 FILLER_0_15_149
*371 FILLER_0_15_15
*372 FILLER_0_15_161
*373 FILLER_0_15_167
*374 FILLER_0_15_169
*375 FILLER_0_15_181
*376 FILLER_0_15_193
*377 FILLER_0_15_205
*378 FILLER_0_15_217
*379 FILLER_0_15_223
*380 FILLER_0_15_225
*381 FILLER_0_15_237
*382 FILLER_0_15_249
*383 FILLER_0_15_261
*384 FILLER_0_15_27
*385 FILLER_0_15_273
*386 FILLER_0_15_279
*387 FILLER_0_15_281
*388 FILLER_0_15_293
*389 FILLER_0_15_3
*390 FILLER_0_15_305
*391 FILLER_0_15_317
*392 FILLER_0_15_329
*393 FILLER_0_15_335
*394 FILLER_0_15_337
*395 FILLER_0_15_349
*396 FILLER_0_15_39
*397 FILLER_0_15_51
*398 FILLER_0_15_55
*399 FILLER_0_15_57
*400 FILLER_0_15_69
*401 FILLER_0_15_81
*402 FILLER_0_15_93
*403 FILLER_0_16_109
*404 FILLER_0_16_121
*405 FILLER_0_16_133
*406 FILLER_0_16_139
*407 FILLER_0_16_141
*408 FILLER_0_16_15
*409 FILLER_0_16_153
*410 FILLER_0_16_165
*411 FILLER_0_16_177
*412 FILLER_0_16_189
*413 FILLER_0_16_195
*414 FILLER_0_16_197
*415 FILLER_0_16_209
*416 FILLER_0_16_221
*417 FILLER_0_16_233
*418 FILLER_0_16_245
*419 FILLER_0_16_251
*420 FILLER_0_16_253
*421 FILLER_0_16_265
*422 FILLER_0_16_27
*423 FILLER_0_16_277
*424 FILLER_0_16_289
*425 FILLER_0_16_29
*426 FILLER_0_16_3
*427 FILLER_0_16_301
*428 FILLER_0_16_307
*429 FILLER_0_16_309
*430 FILLER_0_16_321
*431 FILLER_0_16_333
*432 FILLER_0_16_345
*433 FILLER_0_16_41
*434 FILLER_0_16_53
*435 FILLER_0_16_65
*436 FILLER_0_16_77
*437 FILLER_0_16_83
*438 FILLER_0_16_85
*439 FILLER_0_16_97
*440 FILLER_0_17_105
*441 FILLER_0_17_111
*442 FILLER_0_17_113
*443 FILLER_0_17_125
*444 FILLER_0_17_137
*445 FILLER_0_17_149
*446 FILLER_0_17_15
*447 FILLER_0_17_161
*448 FILLER_0_17_167
*449 FILLER_0_17_169
*450 FILLER_0_17_181
*451 FILLER_0_17_193
*452 FILLER_0_17_205
*453 FILLER_0_17_217
*454 FILLER_0_17_223
*455 FILLER_0_17_225
*456 FILLER_0_17_237
*457 FILLER_0_17_249
*458 FILLER_0_17_261
*459 FILLER_0_17_27
*460 FILLER_0_17_273
*461 FILLER_0_17_279
*462 FILLER_0_17_281
*463 FILLER_0_17_293
*464 FILLER_0_17_3
*465 FILLER_0_17_305
*466 FILLER_0_17_317
*467 FILLER_0_17_329
*468 FILLER_0_17_335
*469 FILLER_0_17_337
*470 FILLER_0_17_349
*471 FILLER_0_17_39
*472 FILLER_0_17_51
*473 FILLER_0_17_55
*474 FILLER_0_17_57
*475 FILLER_0_17_69
*476 FILLER_0_17_81
*477 FILLER_0_17_93
*478 FILLER_0_18_109
*479 FILLER_0_18_121
*480 FILLER_0_18_133
*481 FILLER_0_18_139
*482 FILLER_0_18_141
*483 FILLER_0_18_15
*484 FILLER_0_18_153
*485 FILLER_0_18_165
*486 FILLER_0_18_177
*487 FILLER_0_18_189
*488 FILLER_0_18_195
*489 FILLER_0_18_197
*490 FILLER_0_18_209
*491 FILLER_0_18_221
*492 FILLER_0_18_233
*493 FILLER_0_18_245
*494 FILLER_0_18_251
*495 FILLER_0_18_253
*496 FILLER_0_18_265
*497 FILLER_0_18_27
*498 FILLER_0_18_277
*499 FILLER_0_18_289
*500 FILLER_0_18_29
*501 FILLER_0_18_3
*502 FILLER_0_18_301
*503 FILLER_0_18_307
*504 FILLER_0_18_309
*505 FILLER_0_18_321
*506 FILLER_0_18_333
*507 FILLER_0_18_345
*508 FILLER_0_18_41
*509 FILLER_0_18_53
*510 FILLER_0_18_65
*511 FILLER_0_18_77
*512 FILLER_0_18_83
*513 FILLER_0_18_85
*514 FILLER_0_18_97
*515 FILLER_0_19_105
*516 FILLER_0_19_111
*517 FILLER_0_19_113
*518 FILLER_0_19_125
*519 FILLER_0_19_137
*520 FILLER_0_19_149
*521 FILLER_0_19_15
*522 FILLER_0_19_161
*523 FILLER_0_19_167
*524 FILLER_0_19_169
*525 FILLER_0_19_181
*526 FILLER_0_19_193
*527 FILLER_0_19_205
*528 FILLER_0_19_217
*529 FILLER_0_19_223
*530 FILLER_0_19_225
*531 FILLER_0_19_237
*532 FILLER_0_19_249
*533 FILLER_0_19_261
*534 FILLER_0_19_27
*535 FILLER_0_19_273
*536 FILLER_0_19_279
*537 FILLER_0_19_281
*538 FILLER_0_19_293
*539 FILLER_0_19_3
*540 FILLER_0_19_305
*541 FILLER_0_19_317
*542 FILLER_0_19_329
*543 FILLER_0_19_335
*544 FILLER_0_19_337
*545 FILLER_0_19_349
*546 FILLER_0_19_39
*547 FILLER_0_19_51
*548 FILLER_0_19_55
*549 FILLER_0_19_57
*550 FILLER_0_19_69
*551 FILLER_0_19_81
*552 FILLER_0_19_93
*553 FILLER_0_1_105
*554 FILLER_0_1_111
*555 FILLER_0_1_113
*556 FILLER_0_1_125
*557 FILLER_0_1_137
*558 FILLER_0_1_149
*559 FILLER_0_1_15
*560 FILLER_0_1_161
*561 FILLER_0_1_167
*562 FILLER_0_1_169
*563 FILLER_0_1_181
*564 FILLER_0_1_193
*565 FILLER_0_1_205
*566 FILLER_0_1_217
*567 FILLER_0_1_223
*568 FILLER_0_1_225
*569 FILLER_0_1_237
*570 FILLER_0_1_249
*571 FILLER_0_1_261
*572 FILLER_0_1_27
*573 FILLER_0_1_273
*574 FILLER_0_1_279
*575 FILLER_0_1_281
*576 FILLER_0_1_293
*577 FILLER_0_1_3
*578 FILLER_0_1_305
*579 FILLER_0_1_317
*580 FILLER_0_1_329
*581 FILLER_0_1_335
*582 FILLER_0_1_337
*583 FILLER_0_1_349
*584 FILLER_0_1_39
*585 FILLER_0_1_51
*586 FILLER_0_1_55
*587 FILLER_0_1_57
*588 FILLER_0_1_69
*589 FILLER_0_1_81
*590 FILLER_0_1_93
*591 FILLER_0_20_109
*592 FILLER_0_20_121
*593 FILLER_0_20_133
*594 FILLER_0_20_139
*595 FILLER_0_20_141
*596 FILLER_0_20_15
*597 FILLER_0_20_153
*598 FILLER_0_20_165
*599 FILLER_0_20_177
*600 FILLER_0_20_189
*601 FILLER_0_20_195
*602 FILLER_0_20_197
*603 FILLER_0_20_209
*604 FILLER_0_20_221
*605 FILLER_0_20_233
*606 FILLER_0_20_245
*607 FILLER_0_20_251
*608 FILLER_0_20_253
*609 FILLER_0_20_265
*610 FILLER_0_20_27
*611 FILLER_0_20_277
*612 FILLER_0_20_289
*613 FILLER_0_20_29
*614 FILLER_0_20_3
*615 FILLER_0_20_301
*616 FILLER_0_20_307
*617 FILLER_0_20_309
*618 FILLER_0_20_321
*619 FILLER_0_20_333
*620 FILLER_0_20_345
*621 FILLER_0_20_41
*622 FILLER_0_20_53
*623 FILLER_0_20_65
*624 FILLER_0_20_77
*625 FILLER_0_20_83
*626 FILLER_0_20_85
*627 FILLER_0_20_97
*628 FILLER_0_21_105
*629 FILLER_0_21_111
*630 FILLER_0_21_113
*631 FILLER_0_21_125
*632 FILLER_0_21_137
*633 FILLER_0_21_149
*634 FILLER_0_21_15
*635 FILLER_0_21_161
*636 FILLER_0_21_167
*637 FILLER_0_21_169
*638 FILLER_0_21_181
*639 FILLER_0_21_193
*640 FILLER_0_21_205
*641 FILLER_0_21_217
*642 FILLER_0_21_223
*643 FILLER_0_21_225
*644 FILLER_0_21_237
*645 FILLER_0_21_249
*646 FILLER_0_21_261
*647 FILLER_0_21_27
*648 FILLER_0_21_273
*649 FILLER_0_21_279
*650 FILLER_0_21_281
*651 FILLER_0_21_293
*652 FILLER_0_21_3
*653 FILLER_0_21_305
*654 FILLER_0_21_317
*655 FILLER_0_21_329
*656 FILLER_0_21_335
*657 FILLER_0_21_337
*658 FILLER_0_21_349
*659 FILLER_0_21_39
*660 FILLER_0_21_51
*661 FILLER_0_21_55
*662 FILLER_0_21_57
*663 FILLER_0_21_69
*664 FILLER_0_21_81
*665 FILLER_0_21_93
*666 FILLER_0_22_109
*667 FILLER_0_22_121
*668 FILLER_0_22_133
*669 FILLER_0_22_139
*670 FILLER_0_22_141
*671 FILLER_0_22_15
*672 FILLER_0_22_153
*673 FILLER_0_22_165
*674 FILLER_0_22_177
*675 FILLER_0_22_189
*676 FILLER_0_22_195
*677 FILLER_0_22_197
*678 FILLER_0_22_209
*679 FILLER_0_22_221
*680 FILLER_0_22_233
*681 FILLER_0_22_245
*682 FILLER_0_22_251
*683 FILLER_0_22_253
*684 FILLER_0_22_265
*685 FILLER_0_22_27
*686 FILLER_0_22_277
*687 FILLER_0_22_289
*688 FILLER_0_22_29
*689 FILLER_0_22_3
*690 FILLER_0_22_301
*691 FILLER_0_22_307
*692 FILLER_0_22_309
*693 FILLER_0_22_321
*694 FILLER_0_22_333
*695 FILLER_0_22_345
*696 FILLER_0_22_41
*697 FILLER_0_22_53
*698 FILLER_0_22_65
*699 FILLER_0_22_77
*700 FILLER_0_22_83
*701 FILLER_0_22_85
*702 FILLER_0_22_97
*703 FILLER_0_23_105
*704 FILLER_0_23_111
*705 FILLER_0_23_113
*706 FILLER_0_23_125
*707 FILLER_0_23_137
*708 FILLER_0_23_149
*709 FILLER_0_23_15
*710 FILLER_0_23_161
*711 FILLER_0_23_167
*712 FILLER_0_23_169
*713 FILLER_0_23_181
*714 FILLER_0_23_193
*715 FILLER_0_23_205
*716 FILLER_0_23_217
*717 FILLER_0_23_223
*718 FILLER_0_23_225
*719 FILLER_0_23_237
*720 FILLER_0_23_249
*721 FILLER_0_23_261
*722 FILLER_0_23_27
*723 FILLER_0_23_273
*724 FILLER_0_23_279
*725 FILLER_0_23_281
*726 FILLER_0_23_293
*727 FILLER_0_23_3
*728 FILLER_0_23_305
*729 FILLER_0_23_317
*730 FILLER_0_23_329
*731 FILLER_0_23_335
*732 FILLER_0_23_337
*733 FILLER_0_23_349
*734 FILLER_0_23_39
*735 FILLER_0_23_51
*736 FILLER_0_23_55
*737 FILLER_0_23_57
*738 FILLER_0_23_69
*739 FILLER_0_23_81
*740 FILLER_0_23_93
*741 FILLER_0_24_109
*742 FILLER_0_24_121
*743 FILLER_0_24_133
*744 FILLER_0_24_139
*745 FILLER_0_24_141
*746 FILLER_0_24_15
*747 FILLER_0_24_153
*748 FILLER_0_24_165
*749 FILLER_0_24_177
*750 FILLER_0_24_189
*751 FILLER_0_24_195
*752 FILLER_0_24_197
*753 FILLER_0_24_209
*754 FILLER_0_24_221
*755 FILLER_0_24_233
*756 FILLER_0_24_245
*757 FILLER_0_24_251
*758 FILLER_0_24_253
*759 FILLER_0_24_265
*760 FILLER_0_24_27
*761 FILLER_0_24_277
*762 FILLER_0_24_289
*763 FILLER_0_24_29
*764 FILLER_0_24_3
*765 FILLER_0_24_301
*766 FILLER_0_24_307
*767 FILLER_0_24_309
*768 FILLER_0_24_321
*769 FILLER_0_24_333
*770 FILLER_0_24_345
*771 FILLER_0_24_41
*772 FILLER_0_24_53
*773 FILLER_0_24_65
*774 FILLER_0_24_77
*775 FILLER_0_24_83
*776 FILLER_0_24_85
*777 FILLER_0_24_97
*778 FILLER_0_25_105
*779 FILLER_0_25_111
*780 FILLER_0_25_113
*781 FILLER_0_25_125
*782 FILLER_0_25_137
*783 FILLER_0_25_149
*784 FILLER_0_25_15
*785 FILLER_0_25_161
*786 FILLER_0_25_167
*787 FILLER_0_25_169
*788 FILLER_0_25_181
*789 FILLER_0_25_193
*790 FILLER_0_25_205
*791 FILLER_0_25_217
*792 FILLER_0_25_223
*793 FILLER_0_25_225
*794 FILLER_0_25_237
*795 FILLER_0_25_249
*796 FILLER_0_25_261
*797 FILLER_0_25_27
*798 FILLER_0_25_273
*799 FILLER_0_25_279
*800 FILLER_0_25_281
*801 FILLER_0_25_293
*802 FILLER_0_25_3
*803 FILLER_0_25_305
*804 FILLER_0_25_317
*805 FILLER_0_25_329
*806 FILLER_0_25_335
*807 FILLER_0_25_337
*808 FILLER_0_25_349
*809 FILLER_0_25_39
*810 FILLER_0_25_51
*811 FILLER_0_25_55
*812 FILLER_0_25_57
*813 FILLER_0_25_69
*814 FILLER_0_25_81
*815 FILLER_0_25_93
*816 FILLER_0_26_109
*817 FILLER_0_26_121
*818 FILLER_0_26_133
*819 FILLER_0_26_139
*820 FILLER_0_26_141
*821 FILLER_0_26_15
*822 FILLER_0_26_153
*823 FILLER_0_26_165
*824 FILLER_0_26_177
*825 FILLER_0_26_189
*826 FILLER_0_26_195
*827 FILLER_0_26_197
*828 FILLER_0_26_209
*829 FILLER_0_26_221
*830 FILLER_0_26_233
*831 FILLER_0_26_245
*832 FILLER_0_26_251
*833 FILLER_0_26_253
*834 FILLER_0_26_265
*835 FILLER_0_26_27
*836 FILLER_0_26_277
*837 FILLER_0_26_289
*838 FILLER_0_26_29
*839 FILLER_0_26_3
*840 FILLER_0_26_301
*841 FILLER_0_26_307
*842 FILLER_0_26_309
*843 FILLER_0_26_321
*844 FILLER_0_26_333
*845 FILLER_0_26_345
*846 FILLER_0_26_41
*847 FILLER_0_26_53
*848 FILLER_0_26_65
*849 FILLER_0_26_77
*850 FILLER_0_26_83
*851 FILLER_0_26_85
*852 FILLER_0_26_97
*853 FILLER_0_27_105
*854 FILLER_0_27_111
*855 FILLER_0_27_113
*856 FILLER_0_27_125
*857 FILLER_0_27_137
*858 FILLER_0_27_149
*859 FILLER_0_27_15
*860 FILLER_0_27_161
*861 FILLER_0_27_167
*862 FILLER_0_27_169
*863 FILLER_0_27_181
*864 FILLER_0_27_193
*865 FILLER_0_27_205
*866 FILLER_0_27_217
*867 FILLER_0_27_223
*868 FILLER_0_27_225
*869 FILLER_0_27_237
*870 FILLER_0_27_249
*871 FILLER_0_27_261
*872 FILLER_0_27_27
*873 FILLER_0_27_273
*874 FILLER_0_27_279
*875 FILLER_0_27_281
*876 FILLER_0_27_293
*877 FILLER_0_27_3
*878 FILLER_0_27_305
*879 FILLER_0_27_317
*880 FILLER_0_27_329
*881 FILLER_0_27_335
*882 FILLER_0_27_337
*883 FILLER_0_27_349
*884 FILLER_0_27_39
*885 FILLER_0_27_51
*886 FILLER_0_27_55
*887 FILLER_0_27_57
*888 FILLER_0_27_69
*889 FILLER_0_27_81
*890 FILLER_0_27_93
*891 FILLER_0_28_109
*892 FILLER_0_28_121
*893 FILLER_0_28_133
*894 FILLER_0_28_139
*895 FILLER_0_28_141
*896 FILLER_0_28_15
*897 FILLER_0_28_153
*898 FILLER_0_28_165
*899 FILLER_0_28_177
*900 FILLER_0_28_189
*901 FILLER_0_28_195
*902 FILLER_0_28_197
*903 FILLER_0_28_209
*904 FILLER_0_28_221
*905 FILLER_0_28_233
*906 FILLER_0_28_245
*907 FILLER_0_28_251
*908 FILLER_0_28_253
*909 FILLER_0_28_265
*910 FILLER_0_28_27
*911 FILLER_0_28_277
*912 FILLER_0_28_289
*913 FILLER_0_28_29
*914 FILLER_0_28_3
*915 FILLER_0_28_301
*916 FILLER_0_28_307
*917 FILLER_0_28_309
*918 FILLER_0_28_321
*919 FILLER_0_28_333
*920 FILLER_0_28_345
*921 FILLER_0_28_41
*922 FILLER_0_28_53
*923 FILLER_0_28_65
*924 FILLER_0_28_77
*925 FILLER_0_28_83
*926 FILLER_0_28_85
*927 FILLER_0_28_97
*928 FILLER_0_29_105
*929 FILLER_0_29_111
*930 FILLER_0_29_113
*931 FILLER_0_29_125
*932 FILLER_0_29_137
*933 FILLER_0_29_149
*934 FILLER_0_29_15
*935 FILLER_0_29_161
*936 FILLER_0_29_167
*937 FILLER_0_29_169
*938 FILLER_0_29_181
*939 FILLER_0_29_193
*940 FILLER_0_29_205
*941 FILLER_0_29_217
*942 FILLER_0_29_223
*943 FILLER_0_29_225
*944 FILLER_0_29_237
*945 FILLER_0_29_249
*946 FILLER_0_29_261
*947 FILLER_0_29_27
*948 FILLER_0_29_273
*949 FILLER_0_29_279
*950 FILLER_0_29_281
*951 FILLER_0_29_293
*952 FILLER_0_29_3
*953 FILLER_0_29_305
*954 FILLER_0_29_317
*955 FILLER_0_29_329
*956 FILLER_0_29_335
*957 FILLER_0_29_337
*958 FILLER_0_29_349
*959 FILLER_0_29_39
*960 FILLER_0_29_51
*961 FILLER_0_29_55
*962 FILLER_0_29_57
*963 FILLER_0_29_69
*964 FILLER_0_29_81
*965 FILLER_0_29_93
*966 FILLER_0_2_109
*967 FILLER_0_2_121
*968 FILLER_0_2_133
*969 FILLER_0_2_139
*970 FILLER_0_2_141
*971 FILLER_0_2_15
*972 FILLER_0_2_153
*973 FILLER_0_2_165
*974 FILLER_0_2_177
*975 FILLER_0_2_189
*976 FILLER_0_2_195
*977 FILLER_0_2_197
*978 FILLER_0_2_209
*979 FILLER_0_2_221
*980 FILLER_0_2_233
*981 FILLER_0_2_245
*982 FILLER_0_2_251
*983 FILLER_0_2_253
*984 FILLER_0_2_265
*985 FILLER_0_2_27
*986 FILLER_0_2_277
*987 FILLER_0_2_289
*988 FILLER_0_2_29
*989 FILLER_0_2_3
*990 FILLER_0_2_301
*991 FILLER_0_2_307
*992 FILLER_0_2_309
*993 FILLER_0_2_321
*994 FILLER_0_2_333
*995 FILLER_0_2_345
*996 FILLER_0_2_41
*997 FILLER_0_2_53
*998 FILLER_0_2_65
*999 FILLER_0_2_77
*1000 FILLER_0_2_83
*1001 FILLER_0_2_85
*1002 FILLER_0_2_97
*1003 FILLER_0_30_109
*1004 FILLER_0_30_121
*1005 FILLER_0_30_133
*1006 FILLER_0_30_139
*1007 FILLER_0_30_141
*1008 FILLER_0_30_15
*1009 FILLER_0_30_153
*1010 FILLER_0_30_165
*1011 FILLER_0_30_177
*1012 FILLER_0_30_189
*1013 FILLER_0_30_195
*1014 FILLER_0_30_197
*1015 FILLER_0_30_209
*1016 FILLER_0_30_221
*1017 FILLER_0_30_233
*1018 FILLER_0_30_245
*1019 FILLER_0_30_251
*1020 FILLER_0_30_253
*1021 FILLER_0_30_265
*1022 FILLER_0_30_27
*1023 FILLER_0_30_277
*1024 FILLER_0_30_289
*1025 FILLER_0_30_29
*1026 FILLER_0_30_3
*1027 FILLER_0_30_301
*1028 FILLER_0_30_307
*1029 FILLER_0_30_309
*1030 FILLER_0_30_321
*1031 FILLER_0_30_333
*1032 FILLER_0_30_345
*1033 FILLER_0_30_41
*1034 FILLER_0_30_53
*1035 FILLER_0_30_65
*1036 FILLER_0_30_77
*1037 FILLER_0_30_83
*1038 FILLER_0_30_85
*1039 FILLER_0_30_97
*1040 FILLER_0_31_105
*1041 FILLER_0_31_111
*1042 FILLER_0_31_113
*1043 FILLER_0_31_125
*1044 FILLER_0_31_137
*1045 FILLER_0_31_149
*1046 FILLER_0_31_15
*1047 FILLER_0_31_161
*1048 FILLER_0_31_167
*1049 FILLER_0_31_169
*1050 FILLER_0_31_181
*1051 FILLER_0_31_193
*1052 FILLER_0_31_205
*1053 FILLER_0_31_217
*1054 FILLER_0_31_223
*1055 FILLER_0_31_225
*1056 FILLER_0_31_237
*1057 FILLER_0_31_261
*1058 FILLER_0_31_27
*1059 FILLER_0_31_273
*1060 FILLER_0_31_279
*1061 FILLER_0_31_281
*1062 FILLER_0_31_293
*1063 FILLER_0_31_3
*1064 FILLER_0_31_305
*1065 FILLER_0_31_317
*1066 FILLER_0_31_329
*1067 FILLER_0_31_335
*1068 FILLER_0_31_337
*1069 FILLER_0_31_349
*1070 FILLER_0_31_39
*1071 FILLER_0_31_51
*1072 FILLER_0_31_55
*1073 FILLER_0_31_57
*1074 FILLER_0_31_69
*1075 FILLER_0_31_81
*1076 FILLER_0_31_93
*1077 FILLER_0_32_109
*1078 FILLER_0_32_121
*1079 FILLER_0_32_133
*1080 FILLER_0_32_139
*1081 FILLER_0_32_141
*1082 FILLER_0_32_15
*1083 FILLER_0_32_153
*1084 FILLER_0_32_165
*1085 FILLER_0_32_177
*1086 FILLER_0_32_189
*1087 FILLER_0_32_195
*1088 FILLER_0_32_197
*1089 FILLER_0_32_202
*1090 FILLER_0_32_214
*1091 FILLER_0_32_226
*1092 FILLER_0_32_230
*1093 FILLER_0_32_238
*1094 FILLER_0_32_250
*1095 FILLER_0_32_256
*1096 FILLER_0_32_268
*1097 FILLER_0_32_27
*1098 FILLER_0_32_280
*1099 FILLER_0_32_29
*1100 FILLER_0_32_3
*1101 FILLER_0_32_304
*1102 FILLER_0_32_309
*1103 FILLER_0_32_317
*1104 FILLER_0_32_321
*1105 FILLER_0_32_326
*1106 FILLER_0_32_338
*1107 FILLER_0_32_350
*1108 FILLER_0_32_41
*1109 FILLER_0_32_53
*1110 FILLER_0_32_65
*1111 FILLER_0_32_77
*1112 FILLER_0_32_83
*1113 FILLER_0_32_85
*1114 FILLER_0_32_97
*1115 FILLER_0_33_105
*1116 FILLER_0_33_111
*1117 FILLER_0_33_113
*1118 FILLER_0_33_125
*1119 FILLER_0_33_137
*1120 FILLER_0_33_149
*1121 FILLER_0_33_15
*1122 FILLER_0_33_161
*1123 FILLER_0_33_167
*1124 FILLER_0_33_169
*1125 FILLER_0_33_208
*1126 FILLER_0_33_216
*1127 FILLER_0_33_225
*1128 FILLER_0_33_239
*1129 FILLER_0_33_247
*1130 FILLER_0_33_253
*1131 FILLER_0_33_265
*1132 FILLER_0_33_27
*1133 FILLER_0_33_271
*1134 FILLER_0_33_279
*1135 FILLER_0_33_281
*1136 FILLER_0_33_293
*1137 FILLER_0_33_3
*1138 FILLER_0_33_307
*1139 FILLER_0_33_333
*1140 FILLER_0_33_337
*1141 FILLER_0_33_349
*1142 FILLER_0_33_39
*1143 FILLER_0_33_51
*1144 FILLER_0_33_55
*1145 FILLER_0_33_57
*1146 FILLER_0_33_69
*1147 FILLER_0_33_81
*1148 FILLER_0_33_93
*1149 FILLER_0_34_109
*1150 FILLER_0_34_121
*1151 FILLER_0_34_133
*1152 FILLER_0_34_139
*1153 FILLER_0_34_141
*1154 FILLER_0_34_15
*1155 FILLER_0_34_153
*1156 FILLER_0_34_165
*1157 FILLER_0_34_177
*1158 FILLER_0_34_195
*1159 FILLER_0_34_197
*1160 FILLER_0_34_249
*1161 FILLER_0_34_253
*1162 FILLER_0_34_27
*1163 FILLER_0_34_29
*1164 FILLER_0_34_297
*1165 FILLER_0_34_3
*1166 FILLER_0_34_305
*1167 FILLER_0_34_309
*1168 FILLER_0_34_317
*1169 FILLER_0_34_329
*1170 FILLER_0_34_341
*1171 FILLER_0_34_349
*1172 FILLER_0_34_41
*1173 FILLER_0_34_53
*1174 FILLER_0_34_65
*1175 FILLER_0_34_77
*1176 FILLER_0_34_83
*1177 FILLER_0_34_85
*1178 FILLER_0_34_97
*1179 FILLER_0_35_105
*1180 FILLER_0_35_111
*1181 FILLER_0_35_113
*1182 FILLER_0_35_125
*1183 FILLER_0_35_137
*1184 FILLER_0_35_145
*1185 FILLER_0_35_15
*1186 FILLER_0_35_172
*1187 FILLER_0_35_183
*1188 FILLER_0_35_195
*1189 FILLER_0_35_201
*1190 FILLER_0_35_205
*1191 FILLER_0_35_217
*1192 FILLER_0_35_222
*1193 FILLER_0_35_225
*1194 FILLER_0_35_27
*1195 FILLER_0_35_273
*1196 FILLER_0_35_287
*1197 FILLER_0_35_296
*1198 FILLER_0_35_3
*1199 FILLER_0_35_308
*1200 FILLER_0_35_337
*1201 FILLER_0_35_349
*1202 FILLER_0_35_39
*1203 FILLER_0_35_51
*1204 FILLER_0_35_55
*1205 FILLER_0_35_57
*1206 FILLER_0_35_69
*1207 FILLER_0_35_81
*1208 FILLER_0_35_93
*1209 FILLER_0_36_109
*1210 FILLER_0_36_121
*1211 FILLER_0_36_133
*1212 FILLER_0_36_139
*1213 FILLER_0_36_141
*1214 FILLER_0_36_149
*1215 FILLER_0_36_15
*1216 FILLER_0_36_163
*1217 FILLER_0_36_171
*1218 FILLER_0_36_179
*1219 FILLER_0_36_191
*1220 FILLER_0_36_195
*1221 FILLER_0_36_209
*1222 FILLER_0_36_221
*1223 FILLER_0_36_233
*1224 FILLER_0_36_242
*1225 FILLER_0_36_250
*1226 FILLER_0_36_253
*1227 FILLER_0_36_265
*1228 FILLER_0_36_27
*1229 FILLER_0_36_277
*1230 FILLER_0_36_289
*1231 FILLER_0_36_29
*1232 FILLER_0_36_3
*1233 FILLER_0_36_301
*1234 FILLER_0_36_307
*1235 FILLER_0_36_321
*1236 FILLER_0_36_346
*1237 FILLER_0_36_350
*1238 FILLER_0_36_41
*1239 FILLER_0_36_53
*1240 FILLER_0_36_65
*1241 FILLER_0_36_77
*1242 FILLER_0_36_83
*1243 FILLER_0_36_85
*1244 FILLER_0_36_97
*1245 FILLER_0_37_105
*1246 FILLER_0_37_111
*1247 FILLER_0_37_113
*1248 FILLER_0_37_125
*1249 FILLER_0_37_137
*1250 FILLER_0_37_145
*1251 FILLER_0_37_15
*1252 FILLER_0_37_172
*1253 FILLER_0_37_184
*1254 FILLER_0_37_208
*1255 FILLER_0_37_220
*1256 FILLER_0_37_225
*1257 FILLER_0_37_239
*1258 FILLER_0_37_243
*1259 FILLER_0_37_259
*1260 FILLER_0_37_27
*1261 FILLER_0_37_274
*1262 FILLER_0_37_281
*1263 FILLER_0_37_3
*1264 FILLER_0_37_304
*1265 FILLER_0_37_337
*1266 FILLER_0_37_349
*1267 FILLER_0_37_39
*1268 FILLER_0_37_51
*1269 FILLER_0_37_55
*1270 FILLER_0_37_57
*1271 FILLER_0_37_69
*1272 FILLER_0_37_81
*1273 FILLER_0_37_93
*1274 FILLER_0_38_104
*1275 FILLER_0_38_110
*1276 FILLER_0_38_116
*1277 FILLER_0_38_122
*1278 FILLER_0_38_128
*1279 FILLER_0_38_134
*1280 FILLER_0_38_141
*1281 FILLER_0_38_146
*1282 FILLER_0_38_15
*1283 FILLER_0_38_152
*1284 FILLER_0_38_158
*1285 FILLER_0_38_162
*1286 FILLER_0_38_167
*1287 FILLER_0_38_172
*1288 FILLER_0_38_176
*1289 FILLER_0_38_182
*1290 FILLER_0_38_188
*1291 FILLER_0_38_194
*1292 FILLER_0_38_210
*1293 FILLER_0_38_251
*1294 FILLER_0_38_253
*1295 FILLER_0_38_268
*1296 FILLER_0_38_27
*1297 FILLER_0_38_272
*1298 FILLER_0_38_287
*1299 FILLER_0_38_29
*1300 FILLER_0_38_3
*1301 FILLER_0_38_309
*1302 FILLER_0_38_328
*1303 FILLER_0_38_337
*1304 FILLER_0_38_349
*1305 FILLER_0_38_41
*1306 FILLER_0_38_53
*1307 FILLER_0_38_57
*1308 FILLER_0_38_68
*1309 FILLER_0_38_74
*1310 FILLER_0_38_80
*1311 FILLER_0_38_88
*1312 FILLER_0_38_92
*1313 FILLER_0_38_98
*1314 FILLER_0_3_105
*1315 FILLER_0_3_111
*1316 FILLER_0_3_113
*1317 FILLER_0_3_125
*1318 FILLER_0_3_137
*1319 FILLER_0_3_149
*1320 FILLER_0_3_15
*1321 FILLER_0_3_161
*1322 FILLER_0_3_167
*1323 FILLER_0_3_169
*1324 FILLER_0_3_181
*1325 FILLER_0_3_193
*1326 FILLER_0_3_205
*1327 FILLER_0_3_217
*1328 FILLER_0_3_223
*1329 FILLER_0_3_225
*1330 FILLER_0_3_237
*1331 FILLER_0_3_249
*1332 FILLER_0_3_261
*1333 FILLER_0_3_27
*1334 FILLER_0_3_273
*1335 FILLER_0_3_279
*1336 FILLER_0_3_281
*1337 FILLER_0_3_293
*1338 FILLER_0_3_3
*1339 FILLER_0_3_305
*1340 FILLER_0_3_317
*1341 FILLER_0_3_329
*1342 FILLER_0_3_335
*1343 FILLER_0_3_337
*1344 FILLER_0_3_349
*1345 FILLER_0_3_39
*1346 FILLER_0_3_51
*1347 FILLER_0_3_55
*1348 FILLER_0_3_57
*1349 FILLER_0_3_69
*1350 FILLER_0_3_81
*1351 FILLER_0_3_93
*1352 FILLER_0_4_109
*1353 FILLER_0_4_121
*1354 FILLER_0_4_133
*1355 FILLER_0_4_139
*1356 FILLER_0_4_141
*1357 FILLER_0_4_15
*1358 FILLER_0_4_153
*1359 FILLER_0_4_165
*1360 FILLER_0_4_177
*1361 FILLER_0_4_189
*1362 FILLER_0_4_195
*1363 FILLER_0_4_197
*1364 FILLER_0_4_209
*1365 FILLER_0_4_221
*1366 FILLER_0_4_233
*1367 FILLER_0_4_245
*1368 FILLER_0_4_251
*1369 FILLER_0_4_253
*1370 FILLER_0_4_265
*1371 FILLER_0_4_27
*1372 FILLER_0_4_277
*1373 FILLER_0_4_289
*1374 FILLER_0_4_29
*1375 FILLER_0_4_3
*1376 FILLER_0_4_301
*1377 FILLER_0_4_307
*1378 FILLER_0_4_309
*1379 FILLER_0_4_321
*1380 FILLER_0_4_333
*1381 FILLER_0_4_345
*1382 FILLER_0_4_41
*1383 FILLER_0_4_53
*1384 FILLER_0_4_65
*1385 FILLER_0_4_77
*1386 FILLER_0_4_83
*1387 FILLER_0_4_85
*1388 FILLER_0_4_97
*1389 FILLER_0_5_105
*1390 FILLER_0_5_111
*1391 FILLER_0_5_113
*1392 FILLER_0_5_125
*1393 FILLER_0_5_137
*1394 FILLER_0_5_149
*1395 FILLER_0_5_15
*1396 FILLER_0_5_161
*1397 FILLER_0_5_167
*1398 FILLER_0_5_169
*1399 FILLER_0_5_181
*1400 FILLER_0_5_193
*1401 FILLER_0_5_205
*1402 FILLER_0_5_217
*1403 FILLER_0_5_223
*1404 FILLER_0_5_225
*1405 FILLER_0_5_237
*1406 FILLER_0_5_249
*1407 FILLER_0_5_261
*1408 FILLER_0_5_27
*1409 FILLER_0_5_273
*1410 FILLER_0_5_279
*1411 FILLER_0_5_281
*1412 FILLER_0_5_293
*1413 FILLER_0_5_3
*1414 FILLER_0_5_305
*1415 FILLER_0_5_317
*1416 FILLER_0_5_329
*1417 FILLER_0_5_335
*1418 FILLER_0_5_337
*1419 FILLER_0_5_349
*1420 FILLER_0_5_39
*1421 FILLER_0_5_51
*1422 FILLER_0_5_55
*1423 FILLER_0_5_57
*1424 FILLER_0_5_69
*1425 FILLER_0_5_81
*1426 FILLER_0_5_93
*1427 FILLER_0_6_109
*1428 FILLER_0_6_121
*1429 FILLER_0_6_133
*1430 FILLER_0_6_139
*1431 FILLER_0_6_141
*1432 FILLER_0_6_15
*1433 FILLER_0_6_153
*1434 FILLER_0_6_165
*1435 FILLER_0_6_177
*1436 FILLER_0_6_189
*1437 FILLER_0_6_195
*1438 FILLER_0_6_197
*1439 FILLER_0_6_209
*1440 FILLER_0_6_221
*1441 FILLER_0_6_233
*1442 FILLER_0_6_245
*1443 FILLER_0_6_251
*1444 FILLER_0_6_253
*1445 FILLER_0_6_265
*1446 FILLER_0_6_27
*1447 FILLER_0_6_277
*1448 FILLER_0_6_289
*1449 FILLER_0_6_29
*1450 FILLER_0_6_3
*1451 FILLER_0_6_301
*1452 FILLER_0_6_307
*1453 FILLER_0_6_309
*1454 FILLER_0_6_321
*1455 FILLER_0_6_333
*1456 FILLER_0_6_345
*1457 FILLER_0_6_41
*1458 FILLER_0_6_53
*1459 FILLER_0_6_65
*1460 FILLER_0_6_77
*1461 FILLER_0_6_83
*1462 FILLER_0_6_85
*1463 FILLER_0_6_97
*1464 FILLER_0_7_105
*1465 FILLER_0_7_111
*1466 FILLER_0_7_113
*1467 FILLER_0_7_125
*1468 FILLER_0_7_137
*1469 FILLER_0_7_149
*1470 FILLER_0_7_15
*1471 FILLER_0_7_161