*SPEF "ieee 1481-1999"
*DESIGN "tt_um_carlosgs99_cro_udg"
*DATE "11:11:11 Fri 11 11, 1111"
*VENDOR "OpenRCX"
*PROGRAM "Parallel Extraction"
*VERSION "1.0"
*DESIGN_FLOW "NAME_SCOPE LOCAL" "PIN_CAP NONE"
*DIVIDER /
*DELIMITER :
*BUS_DELIMITER []
*T_UNIT 1 NS
*C_UNIT 1 PF
*R_UNIT 1 OHM
*L_UNIT 1 HENRY

*NAME_MAP
*3 clk
*4 ena
*5 rst_n
*6 ui_in[0]
*7 ui_in[1]
*8 ui_in[2]
*9 ui_in[3]
*10 ui_in[4]
*11 ui_in[5]
*12 ui_in[6]
*13 ui_in[7]
*14 uio_in[0]
*15 uio_in[1]
*16 uio_in[2]
*17 uio_in[3]
*18 uio_in[4]
*19 uio_in[5]
*20 uio_in[6]
*21 uio_in[7]
*22 net5
*23 net6
*24 net7
*25 net8
*26 net9
*27 net10
*28 net11
*29 net12
*30 uio_out[0]
*31 uio_out[1]
*32 uio_out[2]
*33 uio_out[3]
*34 uio_out[4]
*35 uio_out[5]
*36 uio_out[6]
*37 net4
*38 uo_out[0]
*39 uo_out[1]
*40 uo_out[2]
*41 uo_out[3]
*42 uo_out[4]
*43 uo_out[5]
*44 uo_out[6]
*45 uo_out[7]
*46 _000_
*47 _001_
*48 _002_
*49 _003_
*50 _004_
*51 _005_
*52 _006_
*53 _007_
*54 _008_
*55 _009_
*56 _010_
*57 _011_
*58 _012_
*59 _013_
*60 _014_
*61 _015_
*62 _016_
*63 _017_
*64 _018_
*65 _019_
*66 _020_
*67 _021_
*68 _022_
*69 _023_
*70 _024_
*71 _025_
*72 _026_
*73 _027_
*74 _028_
*75 _029_
*76 _030_
*77 _031_
*78 _032_
*79 _033_
*80 _034_
*81 _035_
*82 _036_
*83 _037_
*84 _038_
*85 _039_
*86 _040_
*87 _041_
*88 _042_
*89 _043_
*90 _044_
*91 _045_
*92 _046_
*93 _047_
*94 _048_
*95 _049_
*96 _050_
*97 _051_
*98 _052_
*99 _053_
*100 _054_
*101 _055_
*102 _056_
*103 _057_
*104 _058_
*105 _059_
*106 _060_
*107 _061_
*108 _062_
*109 _063_
*110 _064_
*111 _065_
*112 _066_
*113 _067_
*114 _068_
*115 _069_
*116 _070_
*117 _071_
*118 _072_
*119 _073_
*120 _074_
*121 _075_
*122 _076_
*123 _077_
*124 _078_
*125 _079_
*126 _080_
*127 _081_
*128 _082_
*129 _083_
*130 _084_
*131 _085_
*132 _086_
*133 _087_
*134 _088_
*135 _089_
*136 _090_
*137 _091_
*138 _092_
*139 _093_
*140 _094_
*141 _095_
*142 _096_
*143 _097_
*144 _098_
*145 _099_
*146 _100_
*147 _101_
*148 _102_
*149 _103_
*150 _104_
*151 _105_
*152 _106_
*153 _107_
*154 _108_
*155 _109_
*156 _110_
*157 _111_
*158 _112_
*159 _113_
*160 _114_
*161 _115_
*162 _116_
*163 _117_
*164 _118_
*165 _119_
*166 _120_
*167 _121_
*168 _122_
*169 _123_
*170 _124_
*171 _125_
*172 _126_
*173 _127_
*174 _128_
*175 _129_
*176 _130_
*177 _131_
*178 _132_
*179 _133_
*180 _134_
*181 _135_
*182 _136_
*183 _137_
*184 _138_
*185 _139_
*186 _140_
*187 _141_
*188 _142_
*189 _143_
*190 _144_
*191 _145_
*192 _146_
*193 _147_
*194 _148_
*195 _149_
*196 _150_
*197 _151_
*198 _152_
*199 _153_
*200 _154_
*201 _155_
*202 _156_
*203 _157_
*204 _158_
*205 _159_
*206 _160_
*207 _161_
*208 _162_
*209 _163_
*210 _164_
*211 _165_
*212 _166_
*213 _167_
*214 _168_
*215 _169_
*216 _170_
*217 _171_
*218 _172_
*219 _173_
*220 _174_
*221 _175_
*222 _176_
*223 _177_
*224 _178_
*225 _179_
*226 _180_
*227 _181_
*228 _182_
*229 _183_
*230 _184_
*231 _185_
*232 _186_
*233 _187_
*234 _188_
*235 _189_
*236 _190_
*237 _191_
*238 _192_
*239 _193_
*240 _194_
*241 _195_
*242 _196_
*243 _197_
*244 _198_
*245 _199_
*246 _200_
*247 _201_
*248 _202_
*249 _203_
*250 _204_
*251 _205_
*252 _206_
*253 _207_
*254 _208_
*255 _209_
*256 _210_
*257 _211_
*258 _212_
*259 _213_
*260 _214_
*261 _215_
*262 _216_
*263 _217_
*264 _218_
*265 _219_
*266 _220_
*267 _221_
*268 _222_
*269 _223_
*270 _224_
*271 _225_
*272 _226_
*273 _227_
*274 cent_d\[0\]
*275 cent_d\[1\]
*276 cent_d\[2\]
*277 cent_d\[3\]
*278 cent_u\[0\]
*279 cent_u\[1\]
*280 cent_u\[2\]
*281 cent_u\[3\]
*282 clknet_0_clk
*283 clknet_2_0__leaf_clk
*284 clknet_2_1__leaf_clk
*285 clknet_2_2__leaf_clk
*286 clknet_2_3__leaf_clk
*287 cnt_sel\[0\]
*288 cnt_sel\[1\]
*289 cnt_sel\[2\]
*290 cont50\[0\]
*291 cont50\[10\]
*292 cont50\[11\]
*293 cont50\[12\]
*294 cont50\[13\]
*295 cont50\[14\]
*296 cont50\[15\]
*297 cont50\[16\]
*298 cont50\[17\]
*299 cont50\[1\]
*300 cont50\[2\]
*301 cont50\[3\]
*302 cont50\[4\]
*303 cont50\[5\]
*304 cont50\[6\]
*305 cont50\[7\]
*306 cont50\[8\]
*307 cont50\[9\]
*308 ff100
*309 min_d\[0\]
*310 min_d\[1\]
*311 min_d\[2\]
*312 min_u\[0\]
*313 min_u\[1\]
*314 min_u\[2\]
*315 min_u\[3\]
*316 net1
*317 net13
*318 net14
*319 net15
*320 net16
*321 net17
*322 net18
*323 net19
*324 net2
*325 net20
*326 net21
*327 net22
*328 net23
*329 net24
*330 net25
*331 net26
*332 net27
*333 net28
*334 net29
*335 net3
*336 net30
*337 net31
*338 net32
*339 net33
*340 net34
*341 net35
*342 net36
*343 rst
*344 rst_n_meta\[0\]
*345 rst_n_meta\[1\]
*346 rst_n_meta\[2\]
*347 rst_n_meta\[3\]
*348 rst_r
*349 seg_d\[0\]
*350 seg_d\[1\]
*351 seg_d\[2\]
*352 seg_u\[0\]
*353 seg_u\[1\]
*354 seg_u\[2\]
*355 seg_u\[3\]
*356 FILLER_0_0_109
*357 FILLER_0_0_113
*358 FILLER_0_0_125
*359 FILLER_0_0_137
*360 FILLER_0_0_141
*361 FILLER_0_0_15
*362 FILLER_0_0_153
*363 FILLER_0_0_165
*364 FILLER_0_0_169
*365 FILLER_0_0_181
*366 FILLER_0_0_193
*367 FILLER_0_0_197
*368 FILLER_0_0_209
*369 FILLER_0_0_221
*370 FILLER_0_0_225
*371 FILLER_0_0_237
*372 FILLER_0_0_249
*373 FILLER_0_0_253
*374 FILLER_0_0_265
*375 FILLER_0_0_27
*376 FILLER_0_0_277
*377 FILLER_0_0_281
*378 FILLER_0_0_29
*379 FILLER_0_0_293
*380 FILLER_0_0_3
*381 FILLER_0_0_305
*382 FILLER_0_0_309
*383 FILLER_0_0_321
*384 FILLER_0_0_333
*385 FILLER_0_0_337
*386 FILLER_0_0_349
*387 FILLER_0_0_41
*388 FILLER_0_0_53
*389 FILLER_0_0_57
*390 FILLER_0_0_69
*391 FILLER_0_0_81
*392 FILLER_0_0_85
*393 FILLER_0_0_97
*394 FILLER_0_10_109
*395 FILLER_0_10_121
*396 FILLER_0_10_133
*397 FILLER_0_10_139
*398 FILLER_0_10_141
*399 FILLER_0_10_15
*400 FILLER_0_10_153
*401 FILLER_0_10_165
*402 FILLER_0_10_177
*403 FILLER_0_10_189
*404 FILLER_0_10_195
*405 FILLER_0_10_197
*406 FILLER_0_10_209
*407 FILLER_0_10_221
*408 FILLER_0_10_233
*409 FILLER_0_10_245
*410 FILLER_0_10_251
*411 FILLER_0_10_253
*412 FILLER_0_10_265
*413 FILLER_0_10_27
*414 FILLER_0_10_277
*415 FILLER_0_10_289
*416 FILLER_0_10_29
*417 FILLER_0_10_3
*418 FILLER_0_10_301
*419 FILLER_0_10_307
*420 FILLER_0_10_309
*421 FILLER_0_10_321
*422 FILLER_0_10_333
*423 FILLER_0_10_345
*424 FILLER_0_10_41
*425 FILLER_0_10_53
*426 FILLER_0_10_65
*427 FILLER_0_10_77
*428 FILLER_0_10_83
*429 FILLER_0_10_85
*430 FILLER_0_10_97
*431 FILLER_0_11_105
*432 FILLER_0_11_111
*433 FILLER_0_11_113
*434 FILLER_0_11_125
*435 FILLER_0_11_137
*436 FILLER_0_11_149
*437 FILLER_0_11_15
*438 FILLER_0_11_161
*439 FILLER_0_11_167
*440 FILLER_0_11_169
*441 FILLER_0_11_181
*442 FILLER_0_11_193
*443 FILLER_0_11_205
*444 FILLER_0_11_217
*445 FILLER_0_11_223
*446 FILLER_0_11_225
*447 FILLER_0_11_237
*448 FILLER_0_11_249
*449 FILLER_0_11_261
*450 FILLER_0_11_27
*451 FILLER_0_11_273
*452 FILLER_0_11_279
*453 FILLER_0_11_281
*454 FILLER_0_11_293
*455 FILLER_0_11_3
*456 FILLER_0_11_305
*457 FILLER_0_11_317
*458 FILLER_0_11_329
*459 FILLER_0_11_335
*460 FILLER_0_11_337
*461 FILLER_0_11_349
*462 FILLER_0_11_39
*463 FILLER_0_11_51
*464 FILLER_0_11_55
*465 FILLER_0_11_57
*466 FILLER_0_11_69
*467 FILLER_0_11_81
*468 FILLER_0_11_93
*469 FILLER_0_12_109
*470 FILLER_0_12_121
*471 FILLER_0_12_133
*472 FILLER_0_12_139
*473 FILLER_0_12_141
*474 FILLER_0_12_15
*475 FILLER_0_12_153
*476 FILLER_0_12_165
*477 FILLER_0_12_177
*478 FILLER_0_12_189
*479 FILLER_0_12_195
*480 FILLER_0_12_197
*481 FILLER_0_12_209
*482 FILLER_0_12_221
*483 FILLER_0_12_233
*484 FILLER_0_12_245
*485 FILLER_0_12_251
*486 FILLER_0_12_253
*487 FILLER_0_12_265
*488 FILLER_0_12_27
*489 FILLER_0_12_277
*490 FILLER_0_12_289
*491 FILLER_0_12_29
*492 FILLER_0_12_3
*493 FILLER_0_12_301
*494 FILLER_0_12_307
*495 FILLER_0_12_309
*496 FILLER_0_12_321
*497 FILLER_0_12_333
*498 FILLER_0_12_345
*499 FILLER_0_12_41
*500 FILLER_0_12_53
*501 FILLER_0_12_65
*502 FILLER_0_12_77
*503 FILLER_0_12_83
*504 FILLER_0_12_85
*505 FILLER_0_12_97
*506 FILLER_0_13_105
*507 FILLER_0_13_111
*508 FILLER_0_13_113
*509 FILLER_0_13_125
*510 FILLER_0_13_137
*511 FILLER_0_13_149
*512 FILLER_0_13_15
*513 FILLER_0_13_161
*514 FILLER_0_13_167
*515 FILLER_0_13_169
*516 FILLER_0_13_181
*517 FILLER_0_13_193
*518 FILLER_0_13_205
*519 FILLER_0_13_217
*520 FILLER_0_13_223
*521 FILLER_0_13_225
*522 FILLER_0_13_237
*523 FILLER_0_13_249
*524 FILLER_0_13_261
*525 FILLER_0_13_27
*526 FILLER_0_13_273
*527 FILLER_0_13_279
*528 FILLER_0_13_281
*529 FILLER_0_13_293
*530 FILLER_0_13_3
*531 FILLER_0_13_305
*532 FILLER_0_13_317
*533 FILLER_0_13_329
*534 FILLER_0_13_335
*535 FILLER_0_13_337
*536 FILLER_0_13_349
*537 FILLER_0_13_39
*538 FILLER_0_13_51
*539 FILLER_0_13_55
*540 FILLER_0_13_57
*541 FILLER_0_13_69
*542 FILLER_0_13_81
*543 FILLER_0_13_93
*544 FILLER_0_14_109
*545 FILLER_0_14_121
*546 FILLER_0_14_133
*547 FILLER_0_14_139
*548 FILLER_0_14_141
*549 FILLER_0_14_15
*550 FILLER_0_14_153
*551 FILLER_0_14_165
*552 FILLER_0_14_177
*553 FILLER_0_14_189
*554 FILLER_0_14_195
*555 FILLER_0_14_197
*556 FILLER_0_14_209
*557 FILLER_0_14_221
*558 FILLER_0_14_233
*559 FILLER_0_14_245
*560 FILLER_0_14_251
*561 FILLER_0_14_253
*562 FILLER_0_14_265
*563 FILLER_0_14_27
*564 FILLER_0_14_277
*565 FILLER_0_14_289
*566 FILLER_0_14_29
*567 FILLER_0_14_3
*568 FILLER_0_14_301
*569 FILLER_0_14_307
*570 FILLER_0_14_309
*571 FILLER_0_14_321
*572 FILLER_0_14_333
*573 FILLER_0_14_345
*574 FILLER_0_14_41
*575 FILLER_0_14_53
*576 FILLER_0_14_65
*577 FILLER_0_14_77
*578 FILLER_0_14_83
*579 FILLER_0_14_85
*580 FILLER_0_14_97
*581 FILLER_0_15_105
*582 FILLER_0_15_111
*583 FILLER_0_15_113
*584 FILLER_0_15_125
*585 FILLER_0_15_137
*586 FILLER_0_15_149
*587 FILLER_0_15_15
*588 FILLER_0_15_161
*589 FILLER_0_15_167
*590 FILLER_0_15_169
*591 FILLER_0_15_181
*592 FILLER_0_15_193
*593 FILLER_0_15_205
*594 FILLER_0_15_217
*595 FILLER_0_15_223
*596 FILLER_0_15_225
*597 FILLER_0_15_237
*598 FILLER_0_15_249
*599 FILLER_0_15_261
*600 FILLER_0_15_27
*601 FILLER_0_15_273
*602 FILLER_0_15_279
*603 FILLER_0_15_281
*604 FILLER_0_15_293
*605 FILLER_0_15_3
*606 FILLER_0_15_305
*607 FILLER_0_15_317
*608 FILLER_0_15_329
*609 FILLER_0_15_335
*610 FILLER_0_15_337
*611 FILLER_0_15_349
*612 FILLER_0_15_39
*613 FILLER_0_15_51
*614 FILLER_0_15_55
*615 FILLER_0_15_57
*616 FILLER_0_15_69
*617 FILLER_0_15_81
*618 FILLER_0_15_93
*619 FILLER_0_16_109
*620 FILLER_0_16_121
*621 FILLER_0_16_133
*622 FILLER_0_16_139
*623 FILLER_0_16_141
*624 FILLER_0_16_15
*625 FILLER_0_16_153
*626 FILLER_0_16_165
*627 FILLER_0_16_177
*628 FILLER_0_16_189
*629 FILLER_0_16_195
*630 FILLER_0_16_197
*631 FILLER_0_16_209
*632 FILLER_0_16_221
*633 FILLER_0_16_233
*634 FILLER_0_16_245
*635 FILLER_0_16_251
*636 FILLER_0_16_253
*637 FILLER_0_16_265
*638 FILLER_0_16_27
*639 FILLER_0_16_277
*640 FILLER_0_16_289
*641 FILLER_0_16_29
*642 FILLER_0_16_3
*643 FILLER_0_16_301
*644 FILLER_0_16_307
*645 FILLER_0_16_309
*646 FILLER_0_16_321
*647 FILLER_0_16_333
*648 FILLER_0_16_345
*649 FILLER_0_16_41
*650 FILLER_0_16_53
*651 FILLER_0_16_65
*652 FILLER_0_16_77
*653 FILLER_0_16_83
*654 FILLER_0_16_85
*655 FILLER_0_16_97
*656 FILLER_0_17_105
*657 FILLER_0_17_111
*658 FILLER_0_17_113
*659 FILLER_0_17_125
*660 FILLER_0_17_137
*661 FILLER_0_17_149
*662 FILLER_0_17_15
*663 FILLER_0_17_161
*664 FILLER_0_17_167
*665 FILLER_0_17_169
*666 FILLER_0_17_181
*667 FILLER_0_17_193
*668 FILLER_0_17_205
*669 FILLER_0_17_217
*670 FILLER_0_17_223
*671 FILLER_0_17_225
*672 FILLER_0_17_237
*673 FILLER_0_17_249
*674 FILLER_0_17_261
*675 FILLER_0_17_27
*676 FILLER_0_17_273
*677 FILLER_0_17_279
*678 FILLER_0_17_281
*679 FILLER_0_17_293
*680 FILLER_0_17_3
*681 FILLER_0_17_305
*682 FILLER_0_17_317
*683 FILLER_0_17_329
*684 FILLER_0_17_335
*685 FILLER_0_17_337
*686 FILLER_0_17_349
*687 FILLER_0_17_39
*688 FILLER_0_17_51
*689 FILLER_0_17_55
*690 FILLER_0_17_57
*691 FILLER_0_17_69
*692 FILLER_0_17_81
*693 FILLER_0_17_93
*694 FILLER_0_18_109
*695 FILLER_0_18_121
*696 FILLER_0_18_133
*697 FILLER_0_18_139
*698 FILLER_0_18_141
*699 FILLER_0_18_15
*700 FILLER_0_18_153
*701 FILLER_0_18_165
*702 FILLER_0_18_177
*703 FILLER_0_18_189
*704 FILLER_0_18_195
*705 FILLER_0_18_197
*706 FILLER_0_18_209
*707 FILLER_0_18_221
*708 FILLER_0_18_233
*709 FILLER_0_18_245
*710 FILLER_0_18_251
*711 FILLER_0_18_253
*712 FILLER_0_18_265
*713 FILLER_0_18_27
*714 FILLER_0_18_277
*715 FILLER_0_18_289
*716 FILLER_0_18_29
*717 FILLER_0_18_3
*718 FILLER_0_18_301
*719 FILLER_0_18_307
*720 FILLER_0_18_309
*721 FILLER_0_18_321
*722 FILLER_0_18_333
*723 FILLER_0_18_345
*724 FILLER_0_18_41
*725 FILLER_0_18_53
*726 FILLER_0_18_65
*727 FILLER_0_18_77
*728 FILLER_0_18_83
*729 FILLER_0_18_85
*730 FILLER_0_18_97
*731 FILLER_0_19_105
*732 FILLER_0_19_111
*733 FILLER_0_19_113
*734 FILLER_0_19_125
*735 FILLER_0_19_137
*736 FILLER_0_19_149
*737 FILLER_0_19_15
*738 FILLER_0_19_161
*739 FILLER_0_19_167
*740 FILLER_0_19_169
*741 FILLER_0_19_181
*742 FILLER_0_19_193
*743 FILLER_0_19_205
*744 FILLER_0_19_217
*745 FILLER_0_19_223
*746 FILLER_0_19_225
*747 FILLER_0_19_237
*748 FILLER_0_19_249
*749 FILLER_0_19_261
*750 FILLER_0_19_27
*751 FILLER_0_19_273
*752 FILLER_0_19_279
*753 FILLER_0_19_281
*754 FILLER_0_19_293
*755 FILLER_0_19_3
*756 FILLER_0_19_305
*757 FILLER_0_19_317
*758 FILLER_0_19_329
*759 FILLER_0_19_335
*760 FILLER_0_19_337
*761 FILLER_0_19_349
*762 FILLER_0_19_39
*763 FILLER_0_19_51
*764 FILLER_0_19_55
*765 FILLER_0_19_57
*766 FILLER_0_19_69
*767 FILLER_0_19_81
*768 FILLER_0_19_93
*769 FILLER_0_1_105
*770 FILLER_0_1_111
*771 FILLER_0_1_113
*772 FILLER_0_1_125
*773 FILLER_0_1_137
*774 FILLER_0_1_149
*775 FILLER_0_1_15
*776 FILLER_0_1_161
*777 FILLER_0_1_167
*778 FILLER_0_1_169
*779 FILLER_0_1_181
*780 FILLER_0_1_193
*781 FILLER_0_1_205
*782 FILLER_0_1_217
*783 FILLER_0_1_223
*784 FILLER_0_1_225
*785 FILLER_0_1_237
*786 FILLER_0_1_249
*787 FILLER_0_1_261
*788 FILLER_0_1_27
*789 FILLER_0_1_273
*790 FILLER_0_1_279
*791 FILLER_0_1_281
*792 FILLER_0_1_293
*793 FILLER_0_1_3
*794 FILLER_0_1_305
*795 FILLER_0_1_317
*796 FILLER_0_1_329
*797 FILLER_0_1_335
*798 FILLER_0_1_337
*799 FILLER_0_1_349
*800 FILLER_0_1_39
*801 FILLER_0_1_51
*802 FILLER_0_1_55
*803 FILLER_0_1_57
*804 FILLER_0_1_69
*805 FILLER_0_1_81
*806 FILLER_0_1_93
*807 FILLER_0_20_109
*808 FILLER_0_20_121
*809 FILLER_0_20_133
*810 FILLER_0_20_139
*811 FILLER_0_20_141
*812 FILLER_0_20_15
*813 FILLER_0_20_153
*814 FILLER_0_20_165
*815 FILLER_0_20_177
*816 FILLER_0_20_189
*817 FILLER_0_20_195
*818 FILLER_0_20_197
*819 FILLER_0_20_209
*820 FILLER_0_20_221
*821 FILLER_0_20_233
*822 FILLER_0_20_245
*823 FILLER_0_20_251
*824 FILLER_0_20_253
*825 FILLER_0_20_265
*826 FILLER_0_20_27
*827 FILLER_0_20_277
*828 FILLER_0_20_289
*829 FILLER_0_20_29
*830 FILLER_0_20_3
*831 FILLER_0_20_301
*832 FILLER_0_20_307
*833 FILLER_0_20_309
*834 FILLER_0_20_321
*835 FILLER_0_20_333
*836 FILLER_0_20_345
*837 FILLER_0_20_41
*838 FILLER_0_20_53
*839 FILLER_0_20_65
*840 FILLER_0_20_77
*841 FILLER_0_20_83
*842 FILLER_0_20_85
*843 FILLER_0_20_97
*844 FILLER_0_21_105
*845 FILLER_0_21_111
*846 FILLER_0_21_113
*847 FILLER_0_21_125
*848 FILLER_0_21_137
*849 FILLER_0_21_149
*850 FILLER_0_21_15
*851 FILLER_0_21_161
*852 FILLER_0_21_167
*853 FILLER_0_21_169
*854 FILLER_0_21_181
*855 FILLER_0_21_193
*856 FILLER_0_21_205
*857 FILLER_0_21_217
*858 FILLER_0_21_223
*859 FILLER_0_21_225
*860 FILLER_0_21_237
*861 FILLER_0_21_249
*862 FILLER_0_21_261
*863 FILLER_0_21_27
*864 FILLER_0_21_273
*865 FILLER_0_21_279
*866 FILLER_0_21_281
*867 FILLER_0_21_293
*868 FILLER_0_21_3
*869 FILLER_0_21_305
*870 FILLER_0_21_317
*871 FILLER_0_21_329
*872 FILLER_0_21_335
*873 FILLER_0_21_337
*874 FILLER_0_21_349
*875 FILLER_0_21_39
*876 FILLER_0_21_51
*877 FILLER_0_21_55
*878 FILLER_0_21_57
*879 FILLER_0_21_69
*880 FILLER_0_21_81
*881 FILLER_0_21_93
*882 FILLER_0_22_109
*883 FILLER_0_22_121
*884 FILLER_0_22_133
*885 FILLER_0_22_139
*886 FILLER_0_22_141
*887 FILLER_0_22_15
*888 FILLER_0_22_153
*889 FILLER_0_22_165
*890 FILLER_0_22_177
*891 FILLER_0_22_189
*892 FILLER_0_22_195
*893 FILLER_0_22_197
*894 FILLER_0_22_209
*895 FILLER_0_22_221
*896 FILLER_0_22_233
*897 FILLER_0_22_245
*898 FILLER_0_22_251
*899 FILLER_0_22_253
*900 FILLER_0_22_265
*901 FILLER_0_22_27
*902 FILLER_0_22_277
*903 FILLER_0_22_289
*904 FILLER_0_22_29
*905 FILLER_0_22_3
*906 FILLER_0_22_301
*907 FILLER_0_22_307
*908 FILLER_0_22_309
*909 FILLER_0_22_321
*910 FILLER_0_22_333
*911 FILLER_0_22_345
*912 FILLER_0_22_41
*913 FILLER_0_22_53
*914 FILLER_0_22_65
*915 FILLER_0_22_77
*916 FILLER_0_22_83
*917 FILLER_0_22_85
*918 FILLER_0_22_97
*919 FILLER_0_23_113
*920 FILLER_0_23_117
*921 FILLER_0_23_134
*922 FILLER_0_23_138
*923 FILLER_0_23_15
*924 FILLER_0_23_155
*925 FILLER_0_23_167
*926 FILLER_0_23_169
*927 FILLER_0_23_181
*928 FILLER_0_23_193
*929 FILLER_0_23_205
*930 FILLER_0_23_217
*931 FILLER_0_23_223
*932 FILLER_0_23_225
*933 FILLER_0_23_237
*934 FILLER_0_23_257
*935 FILLER_0_23_27
*936 FILLER_0_23_279
*937 FILLER_0_23_281
*938 FILLER_0_23_3
*939 FILLER_0_23_301
*940 FILLER_0_23_308
*941 FILLER_0_23_320
*942 FILLER_0_23_332
*943 FILLER_0_23_337
*944 FILLER_0_23_349
*945 FILLER_0_23_39
*946 FILLER_0_23_51
*947 FILLER_0_23_55
*948 FILLER_0_23_57
*949 FILLER_0_23_69
*950 FILLER_0_23_78
*951 FILLER_0_23_90
*952 FILLER_0_24_108
*953 FILLER_0_24_120
*954 FILLER_0_24_128
*955 FILLER_0_24_138
*956 FILLER_0_24_141
*957 FILLER_0_24_15
*958 FILLER_0_24_162
*959 FILLER_0_24_174
*960 FILLER_0_24_186
*961 FILLER_0_24_194
*962 FILLER_0_24_197
*963 FILLER_0_24_209
*964 FILLER_0_24_251
*965 FILLER_0_24_268
*966 FILLER_0_24_27
*967 FILLER_0_24_280
*968 FILLER_0_24_29
*969 FILLER_0_24_294
*970 FILLER_0_24_3
*971 FILLER_0_24_305
*972 FILLER_0_24_325
*973 FILLER_0_24_337
*974 FILLER_0_24_349
*975 FILLER_0_24_41
*976 FILLER_0_24_53
*977 FILLER_0_24_57
*978 FILLER_0_24_66
*979 FILLER_0_25_110
*980 FILLER_0_25_120
*981 FILLER_0_25_127
*982 FILLER_0_25_139
*983 FILLER_0_25_15
*984 FILLER_0_25_154
*985 FILLER_0_25_158
*986 FILLER_0_25_167
*987 FILLER_0_25_177
*988 FILLER_0_25_194
*989 FILLER_0_25_206
*990 FILLER_0_25_218
*991 FILLER_0_25_225
*992 FILLER_0_25_229
*993 FILLER_0_25_238
*994 FILLER_0_25_249
*995 FILLER_0_25_261
*996 FILLER_0_25_269
*997 FILLER_0_25_27
*998 FILLER_0_25_278
*999 FILLER_0_25_281
*1000 FILLER_0_25_287
*1001 FILLER_0_25_294
*1002 FILLER_0_25_3
*1003 FILLER_0_25_306
*1004 FILLER_0_25_310
*1005 FILLER_0_25_317
*1006 FILLER_0_25_335
*1007 FILLER_0_25_337
*1008 FILLER_0_25_349
*1009 FILLER_0_25_39
*1010 FILLER_0_25_51
*1011 FILLER_0_25_55
*1012 FILLER_0_26_101
*1013 FILLER_0_26_108
*1014 FILLER_0_26_136
*1015 FILLER_0_26_15
*1016 FILLER_0_26_152
*1017 FILLER_0_26_180
*1018 FILLER_0_26_216
*1019 FILLER_0_26_224
*1020 FILLER_0_26_240
*1021 FILLER_0_26_259
*1022 FILLER_0_26_265
*1023 FILLER_0_26_27
*1024 FILLER_0_26_282
*1025 FILLER_0_26_29
*1026 FILLER_0_26_290
*1027 FILLER_0_26_3
*1028 FILLER_0_26_309
*1029 FILLER_0_26_322
*1030 FILLER_0_26_331
*1031 FILLER_0_26_41
*1032 FILLER_0_26_53
*1033 FILLER_0_26_68
*1034 FILLER_0_26_83
*1035 FILLER_0_26_85
*1036 FILLER_0_27_105
*1037 FILLER_0_27_111
*1038 FILLER_0_27_120
*1039 FILLER_0_27_132
*1040 FILLER_0_27_140
*1041 FILLER_0_27_15
*1042 FILLER_0_27_151
*1043 FILLER_0_27_163
*1044 FILLER_0_27_169
*1045 FILLER_0_27_181
*1046 FILLER_0_27_185
*1047 FILLER_0_27_191
*1048 FILLER_0_27_207
*1049 FILLER_0_27_211
*1050 FILLER_0_27_223
*1051 FILLER_0_27_225
*1052 FILLER_0_27_246
*1053 FILLER_0_27_252
*1054 FILLER_0_27_257
*1055 FILLER_0_27_268
*1056 FILLER_0_27_3
*1057 FILLER_0_27_303
*1058 FILLER_0_27_332
*1059 FILLER_0_27_337
*1060 FILLER_0_27_349
*1061 FILLER_0_27_36
*1062 FILLER_0_27_45
*1063 FILLER_0_27_53
*1064 FILLER_0_27_87
*1065 FILLER_0_28_102
*1066 FILLER_0_28_121
*1067 FILLER_0_28_125
*1068 FILLER_0_28_133
*1069 FILLER_0_28_138
*1070 FILLER_0_28_15
*1071 FILLER_0_28_157
*1072 FILLER_0_28_165
*1073 FILLER_0_28_186
*1074 FILLER_0_28_190
*1075 FILLER_0_28_194
*1076 FILLER_0_28_197
*1077 FILLER_0_28_209
*1078 FILLER_0_28_226
*1079 FILLER_0_28_253
*1080 FILLER_0_28_26
*1081 FILLER_0_28_270
*1082 FILLER_0_28_278
*1083 FILLER_0_28_286
*1084 FILLER_0_28_29
*1085 FILLER_0_28_3
*1086 FILLER_0_28_300
*1087 FILLER_0_28_309
*1088 FILLER_0_28_329
*1089 FILLER_0_28_37
*1090 FILLER_0_28_61
*1091 FILLER_0_28_73
*1092 FILLER_0_28_82
*1093 FILLER_0_28_85
*1094 FILLER_0_29_103
*1095 FILLER_0_29_111
*1096 FILLER_0_29_123
*1097 FILLER_0_29_135
*1098 FILLER_0_29_15
*1099 FILLER_0_29_159
*1100 FILLER_0_29_167
*1101 FILLER_0_29_174
*1102 FILLER_0_29_186
*1103 FILLER_0_29_225
*1104 FILLER_0_29_251
*1105 FILLER_0_29_259
*1106 FILLER_0_29_269
*1107 FILLER_0_29_277
*1108 FILLER_0_29_289
*1109 FILLER_0_29_3
*1110 FILLER_0_29_301
*1111 FILLER_0_29_310
*1112 FILLER_0_29_316
*1113 FILLER_0_29_332
*1114 FILLER_0_29_337
*1115 FILLER_0_29_34
*1116 FILLER_0_29_349
*1117 FILLER_0_29_47
*1118 FILLER_0_29_55
*1119 FILLER_0_29_57
*1120 FILLER_0_29_70
*1121 FILLER_0_2_109
*1122 FILLER_0_2_121
*1123 FILLER_0_2_133
*1124 FILLER_0_2_139
*1125 FILLER_0_2_141
*1126 FILLER_0_2_15
*1127 FILLER_0_2_153
*1128 FILLER_0_2_165
*1129 FILLER_0_2_177
*1130 FILLER_0_2_189
*1131 FILLER_0_2_195
*1132 FILLER_0_2_197
*1133 FILLER_0_2_209
*1134 FILLER_0_2_221
*1135 FILLER_0_2_233
*1136 FILLER_0_2_245
*1137 FILLER_0_2_251
*1138 FILLER_0_2_253
*1139 FILLER_0_2_265
*1140 FILLER_0_2_27
*1141 FILLER_0_2_277
*1142 FILLER_0_2_289
*1143 FILLER_0_2_29
*1144 FILLER_0_2_3
*1145 FILLER_0_2_301
*1146 FILLER_0_2_307
*1147 FILLER_0_2_309
*1148 FILLER_0_2_321
*1149 FILLER_0_2_333
*1150 FILLER_0_2_345
*1151 FILLER_0_2_41
*1152 FILLER_0_2_53
*1153 FILLER_0_2_65
*1154 FILLER_0_2_77
*1155 FILLER_0_2_83
*1156 FILLER_0_2_85
*1157 FILLER_0_2_97
*1158 FILLER_0_30_107
*1159 FILLER_0_30_120
*1160 FILLER_0_30_124
*1161 FILLER_0_30_139
*1162 FILLER_0_30_148
*1163 FILLER_0_30_15
*1164 FILLER_0_30_165
*1165 FILLER_0_30_175
*1166 FILLER_0_30_195
*1167 FILLER_0_30_197
*1168 FILLER_0_30_213
*1169 FILLER_0_30_224
*1170 FILLER_0_30_230
*1171 FILLER_0_30_238
*1172 FILLER_0_30_244
*1173 FILLER_0_30_253
*1174 FILLER_0_30_27
*1175 FILLER_0_30_278
*1176 FILLER_0_30_282
*1177 FILLER_0_30_296
*1178 FILLER_0_30_3
*1179 FILLER_0_30_315
*1180 FILLER_0_30_344
*1181 FILLER_0_30_350
*1182 FILLER_0_30_37
*1183 FILLER_0_30_58
*1184 FILLER_0_30_68
*1185 FILLER_0_30_79
*1186 FILLER_0_30_83
*1187 FILLER_0_30_85
*1188 FILLER_0_31_102
*1189 FILLER_0_31_110
*1190 FILLER_0_31_113
*1191 FILLER_0_31_139
*1192 FILLER_0_31_15
*1193 FILLER_0_31_155
*1194 FILLER_0_31_167
*1195 FILLER_0_31_176
*1196 FILLER_0_31_221
*1197 FILLER_0_31_249
*1198 FILLER_0_31_264
*1199 FILLER_0_31_276
*1200 FILLER_0_31_281
*1201 FILLER_0_31_3
*1202 FILLER_0_31_321
*1203 FILLER_0_31_333
*1204 FILLER_0_31_337
*1205 FILLER_0_31_349
*1206 FILLER_0_31_42
*1207 FILLER_0_31_54
*1208 FILLER_0_31_57
*1209 FILLER_0_31_65
*1210 FILLER_0_31_71
*1211 FILLER_0_31_88
*1212 FILLER_0_32_105
*1213 FILLER_0_32_111
*1214 FILLER_0_32_119
*1215 FILLER_0_32_141
*1216 FILLER_0_32_145
*1217 FILLER_0_32_15
*1218 FILLER_0_32_167
*1219 FILLER_0_32_176
*1220 FILLER_0_32_197
*1221 FILLER_0_32_209
*1222 FILLER_0_32_221
*1223 FILLER_0_32_227
*1224 FILLER_0_32_258
*1225 FILLER_0_32_27
*1226 FILLER_0_32_271
*1227 FILLER_0_32_279
*1228 FILLER_0_32_297
*1229 FILLER_0_32_3
*1230 FILLER_0_32_305
*1231 FILLER_0_32_315
*1232 FILLER_0_32_325
*1233 FILLER_0_32_337
*1234 FILLER_0_32_349
*1235 FILLER_0_32_45
*1236 FILLER_0_32_51
*1237 FILLER_0_32_63
*1238 FILLER_0_32_78
*1239 FILLER_0_32_85
*1240 FILLER_0_32_97
*1241 FILLER_0_33_113
*1242 FILLER_0_33_127
*1243 FILLER_0_33_139
*1244 FILLER_0_33_143
*1245 FILLER_0_33_149
*1246 FILLER_0_33_15
*1247 FILLER_0_33_161
*1248 FILLER_0_33_167
*1249 FILLER_0_33_169
*1250 FILLER_0_33_181
*1251 FILLER_0_33_185
*1252 FILLER_0_33_216
*1253 FILLER_0_33_225
*1254 FILLER_0_33_233
*1255 FILLER_0_33_256
*1256 FILLER_0_33_260
*1257 FILLER_0_33_27
*1258 FILLER_0_33_277
*1259 FILLER_0_33_281
*1260 FILLER_0_33_293
*1261 FILLER_0_33_3
*1262 FILLER_0_33_305
*1263 FILLER_0_33_317
*1264 FILLER_0_33_329
*1265 FILLER_0_33_33
*1266 FILLER_0_33_335
*1267 FILLER_0_33_337
*1268 FILLER_0_33_349
*1269 FILLER_0_33_37
*1270 FILLER_0_33_45
*1271 FILLER_0_33_78
*1272 FILLER_0_33_90
*1273 FILLER_0_33_99
*1274 FILLER_0_34_101
*1275 FILLER_0_34_109
*1276 FILLER_0_34_121
*1277 FILLER_0_34_135
*1278 FILLER_0_34_139
*1279 FILLER_0_34_147
*1280 FILLER_0_34_15
*1281 FILLER_0_34_159
*1282 FILLER_0_34_168
*1283 FILLER_0_34_190
*1284 FILLER_0_34_197
*1285 FILLER_0_34_205
*1286 FILLER_0_34_211
*1287 FILLER_0_34_215
*1288 FILLER_0_34_230
*1289 FILLER_0_34_242
*1290 FILLER_0_34_248
*1291 FILLER_0_34_253
*1292 FILLER_0_34_265
*1293 FILLER_0_34_27
*1294 FILLER_0_34_277
*1295 FILLER_0_34_289
*1296 FILLER_0_34_29
*1297 FILLER_0_34_3
*1298 FILLER_0_34_301
*1299 FILLER_0_34_307
*1300 FILLER_0_34_309
*1301 FILLER_0_34_321
*1302 FILLER_0_34_333
*1303 FILLER_0_34_345
*1304 FILLER_0_34_41
*1305 FILLER_0_34_53
*1306 FILLER_0_34_65
*1307 FILLER_0_34_75
*1308 FILLER_0_35_111
*1309 FILLER_0_35_129
*1310 FILLER_0_35_141
*1311 FILLER_0_35_147
*1312 FILLER_0_35_15
*1313 FILLER_0_35_160
*1314 FILLER_0_35_169
*1315 FILLER_0_35_174
*1316 FILLER_0_35_190
*1317 FILLER_0_35_198
*1318 FILLER_0_35_203
*1319 FILLER_0_35_211
*1320 FILLER_0_35_223
*1321 FILLER_0_35_241
*1322 FILLER_0_35_253
*1323 FILLER_0_35_265
*1324 FILLER_0_35_27
*1325 FILLER_0_35_277
*1326 FILLER_0_35_281
*1327 FILLER_0_35_293
*1328 FILLER_0_35_3
*1329 FILLER_0_35_305
*1330 FILLER_0_35_317
*1331 FILLER_0_35_329
*1332 FILLER_0_35_335
*1333 FILLER_0_35_337
*1334 FILLER_0_35_349
*1335 FILLER_0_35_39
*1336 FILLER_0_35_51
*1337 FILLER_0_35_55
*1338 FILLER_0_35_57
*1339 FILLER_0_35_77
*1340 FILLER_0_35_89
*1341 FILLER_0_36_100
*1342 FILLER_0_36_112
*1343 FILLER_0_36_120
*1344 FILLER_0_36_133
*1345 FILLER_0_36_141
*1346 FILLER_0_36_15
*1347 FILLER_0_36_151
*1348 FILLER_0_36_158
*1349 FILLER_0_36_169
*1350 FILLER_0_36_175
*1351 FILLER_0_36_184
*1352 FILLER_0_36_189
*1353 FILLER_0_36_210
*1354 FILLER_0_36_235
*1355 FILLER_0_36_247
*1356 FILLER_0_36_251
*1357 FILLER_0_36_253
*1358 FILLER_0_36_265
*1359 FILLER_0_36_27
*1360 FILLER_0_36_277
*1361 FILLER_0_36_289
*1362 FILLER_0_36_29
*1363 FILLER_0_36_3
*1364 FILLER_0_36_301
*1365 FILLER_0_36_307
*1366 FILLER_0_36_309
*1367 FILLER_0_36_321
*1368 FILLER_0_36_333
*1369 FILLER_0_36_345
*1370 FILLER_0_36_41
*1371 FILLER_0_36_53
*1372 FILLER_0_36_65
*1373 FILLER_0_36_93
*1374 FILLER_0_37_104
*1375 FILLER_0_37_110
*1376 FILLER_0_37_113
*1377 FILLER_0_37_119
*1378 FILLER_0_37_140
*1379 FILLER_0_37_149
*1380 FILLER_0_37_15
*1381 FILLER_0_37_188
*1382 FILLER_0_37_214
*1383 FILLER_0_37_222
*1384 FILLER_0_37_225
*1385 FILLER_0_37_262
*1386 FILLER_0_37_27
*1387 FILLER_0_37_274
*1388 FILLER_0_37_281
*1389 FILLER_0_37_293
*1390 FILLER_0_37_297
*1391 FILLER_0_37_3
*1392 FILLER_0_37_314
*1393 FILLER_0_37_326
*1394 FILLER_0_37_334
*1395 FILLER_0_37_337
*1396 FILLER_0_37_349
*1397 FILLER_0_37_39
*1398 FILLER_0_37_51
*1399 FILLER_0_37_55
*1400 FILLER_0_37_57
*1401 FILLER_0_37_69
*1402 FILLER_0_37_81
*1403 FILLER_0_37_93
*1404 FILLER_0_38_116
*1405 FILLER_0_38_134
*1406 FILLER_0_38_15
*1407 FILLER_0_38_158
*1408 FILLER_0_38_166
*1409 FILLER_0_38_188
*1410 FILLER_0_38_194
*1411 FILLER_0_38_213
*1412 FILLER_0_38_221
*1413 FILLER_0_38_225
*1414 FILLER_0_38_237
*1415 FILLER_0_38_249
*1416 FILLER_0_38_269
*1417 FILLER_0_38_27
*1418 FILLER_0_38_277
*1419 FILLER_0_38_29
*1420 FILLER_0_38_3
*1421 FILLER_0_38_309
*1422 FILLER_0_38_321
*1423 FILLER_0_38_333
*1424 FILLER_0_38_337
*1425 FILLER_0_38_349
*1426 FILLER_0_38_41
*1427 FILLER_0_38_53
*1428 FILLER_0_38_57
*1429 FILLER_0_38_68
*1430 FILLER_0_38_74
*1431 FILLER_0_38_80
*1432 FILLER_0_38_85
*1433 FILLER_0_3_105
*1434 FILLER_0_3_111
*1435 FILLER_0_3_113
*1436 FILLER_0_3_125
*1437 FILLER_0_3_137
*1438 FILLER_0_3_149
*1439 FILLER_0_3_15
*1440 FILLER_0_3_161
*1441 FILLER_0_3_167
*1442 FILLER_0_3_169
*1443 FILLER_0_3_181
*1444 FILLER_0_3_193
*1445 FILLER_0_3_205
*1446 FILLER_0_3_217
*1447 FILLER_0_3_223
*1448 FILLER_0_3_225
*1449 FILLER_0_3_237
*1450 FILLER_0_3_249
*1451 FILLER_0_3_261
*1452 FILLER_0_3_27
*1453 FILLER_0_3_273
*1454 FILLER_0_3_279
*1455 FILLER_0_3_281
*1456 FILLER_0_3_293
*1457 FILLER_0_3_3
*1458 FILLER_0_3_305
*1459 FILLER_0_3_317
*1460 FILLER_0_3_329
*1461 FILLER_0_3_335
*1462 FILLER_0_3_337
*1463 FILLER_0_3_349
*1464 FILLER_0_3_39
*1465 FILLER_0_3_51
*1466 FILLER_0_3_55
*1467 FILLER_0_3_57
*1468 FILLER_0_3_69
*1469 FILLER_0_3_81
*1470 FILLER_0_3_93
*1471 FILLER_0_4_109
*1472 FILLER_0_4_121
*1473 FILLER_0_4_133
*1474 FILLER_0_4_139
*1475 FILLER_0_4_141
*1476 FILLER_0_4_15
*1477 FILLER_0_4_153
*1478 FILLER_0_4_165
*1479 FILLER_0_4_177
*1480 FILLER_0_4_189
*1481 FILLER_0_4_195
*1482 FILLER_0_4_197
*1483 FILLER_0_4_209
*1484 FILLER_0_4_221
*1485 FILLER_0_4_233
*1486 FILLER_0_4_245
*1487 FILLER_0_4_251
*1488 FILLER_0_4_253
*1489 FILLER_0_4_265
*1490 FILLER_0_4_27
*1491 FILLER_0_4_277
*1492 FILLER_0_4_289
*1493 FILLER_0_4_29
*1494 FILLER_0_4_3
*1495 FILLER_0_4_301
*1496 FILLER_0_4_307
*1497 FILLER_0_4_309
*1498 FILLER_0_4_321
*1499 FILLER_0_4_333
*1500 FILLER_0_4_345
*1501 FILLER_0_4_41
*1502 FILLER_0_4_53
*1503 FILLER_0_4_65
*1504 FILLER_0_4_77
*1505 FILLER_0_4_83
*1506 FILLER_0_4_85
*1507 FILLER_0_4_97
*1508 FILLER_0_5_105
*1509 FILLER_0_5_111
*1510 FILLER_0_5_113
*1511 FILLER_0_5_125
*1512 FILLER_0_5_137
*1513 FILLER_0_5_149
*1514 FILLER_0_5_15
*1515 FILLER_0_5_161
*1516 FILLER_0_5_167
*1517 FILLER_0_5_169
*1518 FILLER_0_5_181
*1519 FILLER_0_5_193
*1520 FILLER_0_5_205
*1521 FILLER_0_5_217
*1522 FILLER_0_5_223
*1523 FILLER_0_5_225
*1524 FILLER_0_5_237
*1525 FILLER_0_5_249
*1526 FILLER_0_5_261
*1527 FILLER_0_5_27
*1528 FILLER_0_5_273
*1529 FILLER_0_5_279
*1530 FILLER_0_5_281
*1531 FILLER_0_5_293
*1532 FILLER_0_5_3
*1533 FILLER_0_5_305
*1534 FILLER_0_5_317
*1535 FILLER_0_5_329
*1536 FILLER_0_5_335
*1537 FILLER_0_5_337
*1538 FILLER_0_5_349
*1539 FILLER_0_5_39
*1540 FILLER_0_5_51
*1541 FILLER_0_5_55
*1542 FILLER_0_5_57
*1543 FILLER_0_5_69
*1544 FILLER_0_5_81
*1545 FILLER_0_5_93
*1546 FILLER_0_6_109
*1547 FILLER_0_6_121
*1548 FILLER_0_6_133
*1549 FILLER_0_6_139
*1550 FILLER_0_6_141
*1551 FILLER_0_6_15
*1552 FILLER_0_6_153
*1553 FILLER_0_6_165
*1554 FILLER_0_6_177
*1555 FILLER_0_6_189
*1556 FILLER_0_6_195
*1557 FILLER_0_6_197
*1558 FILLER_0_6_209
*1559 FILLER_0_6_221
*1560 FILLER_0_6_233
*1561 FILLER_0_6_245
*1562 FILLER_0_6_251
*1563 FILLER_0_6_253
*1564 FILLER_0_6_265
*1565 FILLER_0_6_27
*1566 FILLER_0_6_277
*1567 FILLER_0_6_289
*1568 FILLER_0_6_29
*1569 FILLER_0_6_3