*SPEF "ieee 1481-1999"
*DESIGN "tt_um_wokwi_380408774591779841"
*DATE "11:11:11 Fri 11 11, 1111"
*VENDOR "OpenRCX"
*PROGRAM "Parallel Extraction"
*VERSION "1.0"
*DESIGN_FLOW "NAME_SCOPE LOCAL" "PIN_CAP NONE"
*DIVIDER /
*DELIMITER :
*BUS_DELIMITER []
*T_UNIT 1 NS
*C_UNIT 1 PF
*R_UNIT 1 OHM
*L_UNIT 1 HENRY

*NAME_MAP
*3 clk
*4 ena
*5 rst_n
*6 ui_in[0]
*7 ui_in[1]
*8 ui_in[2]
*9 ui_in[3]
*10 ui_in[4]
*11 ui_in[5]
*12 ui_in[6]
*13 ui_in[7]
*14 uio_in[0]
*15 uio_in[1]
*16 uio_in[2]
*17 uio_in[3]
*18 uio_in[4]
*19 uio_in[5]
*20 uio_in[6]
*21 uio_in[7]
*22 net7
*23 net8
*24 net9
*25 net10
*26 net11
*27 net12
*28 net13
*29 net14
*30 uio_out[0]
*31 uio_out[1]
*32 uio_out[2]
*33 uio_out[3]
*34 uio_out[4]
*35 uio_out[5]
*36 uio_out[6]
*37 uio_out[7]
*38 uo_out[0]
*39 uo_out[1]
*40 uo_out[2]
*41 uo_out[3]
*42 uo_out[4]
*43 uo_out[5]
*44 uo_out[6]
*45 uo_out[7]
*46 _000_
*47 _001_
*48 _002_
*49 _003_
*50 _004_
*51 _005_
*52 _006_
*53 _007_
*54 _008_
*55 _009_
*56 _010_
*57 _011_
*58 _012_
*59 _013_
*60 _014_
*61 _015_
*62 _016_
*63 _017_
*64 _018_
*65 _019_
*66 _020_
*67 _021_
*68 _022_
*69 _023_
*70 _024_
*71 _025_
*72 _026_
*73 _027_
*74 _028_
*75 _029_
*76 _030_
*77 _031_
*78 _032_
*79 _033_
*80 _034_
*81 _035_
*82 _036_
*83 _037_
*84 _038_
*85 _039_
*86 _040_
*87 _041_
*88 _042_
*89 _043_
*90 _044_
*91 _045_
*92 _046_
*93 _047_
*94 _048_
*95 _049_
*96 _050_
*97 _051_
*98 _052_
*99 _053_
*100 _054_
*101 _055_
*102 _056_
*103 _057_
*104 _058_
*105 _059_
*106 _060_
*107 _061_
*108 _062_
*109 _063_
*110 _064_
*111 _065_
*112 _066_
*113 _067_
*114 _068_
*115 _069_
*116 _070_
*117 _071_
*118 _072_
*119 _073_
*120 _074_
*121 _075_
*122 _076_
*123 _077_
*124 _078_
*125 _079_
*126 _080_
*127 _081_
*128 _082_
*129 _083_
*130 _084_
*131 _085_
*132 _086_
*133 _087_
*134 _088_
*135 _089_
*136 _090_
*137 _091_
*138 _092_
*139 _093_
*140 _094_
*141 _095_
*142 _096_
*143 _097_
*144 _098_
*145 _099_
*146 _100_
*147 _101_
*148 _102_
*149 _103_
*150 _104_
*151 _105_
*152 _106_
*153 _107_
*154 _108_
*155 _109_
*156 _110_
*157 _111_
*158 _112_
*159 _113_
*160 _114_
*161 _115_
*162 _116_
*163 _117_
*164 _118_
*165 _119_
*166 _120_
*167 _121_
*168 _122_
*169 _123_
*170 _124_
*171 _125_
*172 _126_
*173 _127_
*174 _128_
*175 _129_
*176 _130_
*177 _131_
*178 _132_
*179 _133_
*180 _134_
*181 _135_
*182 _136_
*183 _137_
*184 _138_
*185 _139_
*186 _140_
*187 _141_
*188 _142_
*189 _143_
*190 _144_
*191 _145_
*192 _146_
*193 _147_
*194 _148_
*195 _149_
*196 _150_
*197 _151_
*198 _152_
*199 _153_
*200 _154_
*201 _155_
*202 _156_
*203 _157_
*204 _158_
*205 _159_
*206 _160_
*207 _161_
*208 _162_
*209 _163_
*210 _164_
*211 _165_
*212 _166_
*213 _167_
*214 _168_
*215 _169_
*216 _170_
*217 _171_
*218 _172_
*219 _173_
*220 _174_
*221 _175_
*222 _176_
*223 _177_
*224 _178_
*225 _179_
*226 _180_
*227 _181_
*228 _182_
*229 _183_
*230 _184_
*231 _185_
*232 _186_
*233 _187_
*234 _188_
*235 _189_
*236 _190_
*237 _191_
*238 _192_
*239 _193_
*240 _194_
*241 _195_
*242 _196_
*243 _197_
*244 _198_
*245 _199_
*246 _200_
*247 _201_
*248 _202_
*249 _203_
*250 _204_
*251 _205_
*252 _206_
*253 _207_
*254 _208_
*255 _209_
*256 _210_
*257 _211_
*258 _212_
*259 _213_
*260 _214_
*261 _215_
*262 _216_
*263 _217_
*264 _218_
*265 _219_
*266 _220_
*267 _221_
*268 _222_
*269 _223_
*270 _224_
*271 _225_
*272 _226_
*273 _227_
*274 _228_
*275 _229_
*276 _230_
*277 _231_
*278 _232_
*279 _233_
*280 _234_
*281 _235_
*282 _236_
*283 _237_
*284 _238_
*285 _239_
*286 _240_
*287 _241_
*288 _242_
*289 _243_
*290 _244_
*291 _245_
*292 _246_
*293 _247_
*294 _248_
*295 _249_
*296 _250_
*297 _251_
*298 _252_
*299 _253_
*300 _254_
*301 _255_
*302 _256_
*303 _257_
*304 _258_
*305 _259_
*306 _260_
*307 _261_
*308 _262_
*309 _263_
*310 _264_
*311 _265_
*312 _266_
*313 _267_
*314 _268_
*315 _269_
*316 _270_
*317 _271_
*318 _272_
*319 _273_
*320 _274_
*321 _275_
*322 _276_
*323 _277_
*324 _278_
*325 _279_
*326 _280_
*327 _281_
*328 _282_
*329 _283_
*330 _284_
*331 _285_
*332 _286_
*333 _287_
*334 _288_
*335 _289_
*336 _290_
*337 _291_
*338 _292_
*339 _293_
*340 _294_
*341 _295_
*342 _296_
*343 _297_
*344 _298_
*345 _299_
*346 _300_
*347 _301_
*348 _302_
*349 _303_
*350 _304_
*351 _305_
*352 _306_
*353 _307_
*354 _308_
*355 _309_
*356 _310_
*357 _311_
*358 _312_
*359 _313_
*360 _314_
*361 _315_
*362 _316_
*363 _317_
*364 _318_
*365 _319_
*366 _320_
*367 _321_
*368 _322_
*369 _323_
*370 _324_
*371 _325_
*372 _326_
*373 _327_
*374 _328_
*375 _329_
*376 _330_
*377 _331_
*378 _332_
*379 _333_
*380 _334_
*381 _335_
*382 _336_
*383 _337_
*384 _338_
*385 _339_
*386 _340_
*387 _341_
*388 _342_
*389 _343_
*390 _344_
*391 _345_
*392 _346_
*393 _347_
*394 _348_
*395 _349_
*396 _350_
*397 _351_
*398 _352_
*399 _353_
*400 _354_
*401 _355_
*402 _356_
*403 _357_
*404 _358_
*405 _359_
*406 _360_
*407 _361_
*408 _362_
*409 _363_
*410 _364_
*411 _365_
*412 _366_
*413 _367_
*414 _368_
*415 _369_
*416 _370_
*417 _371_
*418 _372_
*419 _373_
*420 _374_
*421 _375_
*422 _376_
*423 _377_
*424 _378_
*425 _379_
*426 _380_
*427 _381_
*428 _382_
*429 _383_
*430 _384_
*431 _385_
*432 _386_
*433 _387_
*434 _388_
*435 _389_
*436 _390_
*437 _391_
*438 _392_
*439 _393_
*440 _394_
*441 _395_
*442 _396_
*443 _397_
*444 _398_
*445 _399_
*446 _400_
*447 _401_
*448 _402_
*449 _403_
*450 _404_
*451 _405_
*452 _406_
*453 _407_
*454 _408_
*455 _409_
*456 clknet_0_clk
*457 clknet_4_0_0_clk
*458 clknet_4_10_0_clk
*459 clknet_4_11_0_clk
*460 clknet_4_12_0_clk
*461 clknet_4_13_0_clk
*462 clknet_4_14_0_clk
*463 clknet_4_15_0_clk
*464 clknet_4_1_0_clk
*465 clknet_4_2_0_clk
*466 clknet_4_3_0_clk
*467 clknet_4_4_0_clk
*468 clknet_4_5_0_clk
*469 clknet_4_6_0_clk
*470 clknet_4_7_0_clk
*471 clknet_4_8_0_clk
*472 clknet_4_9_0_clk
*473 net1
*474 net15
*475 net16
*476 net17
*477 net18
*478 net19
*479 net2
*480 net20
*481 net21
*482 net22
*483 net23
*484 net24
*485 net25
*486 net26
*487 net27
*488 net28
*489 net29
*490 net3
*491 net30
*492 net31
*493 net32
*494 net33
*495 net34
*496 net35
*497 net36
*498 net37
*499 net38
*500 net39
*501 net4
*502 net40
*503 net41
*504 net42
*505 net43
*506 net44
*507 net45
*508 net46
*509 net47
*510 net48
*511 net49
*512 net5
*513 net50
*514 net51
*515 net52
*516 net53
*517 net54
*518 net55
*519 net56
*520 net57
*521 net58
*522 net59
*523 net6
*524 net60
*525 net61
*526 net62
*527 net63
*528 net64
*529 net65
*530 net66
*531 net67
*532 net68
*533 net69
*534 net70
*535 net71
*536 net72
*537 net73
*538 net74
*539 net75
*540 net76
*541 net77
*542 net78
*543 net79
*544 net80
*545 net81
*546 net82
*547 net83
*548 net84
*549 net85
*550 net86
*551 net87
*552 net88
*553 net89
*554 net90
*555 net91
*556 net92
*557 net93
*558 net94
*559 net95
*560 net96
*561 pdm_gen\.din\[0\]
*562 pdm_gen\.din\[10\]
*563 pdm_gen\.din\[11\]
*564 pdm_gen\.din\[12\]
*565 pdm_gen\.din\[13\]
*566 pdm_gen\.din\[14\]
*567 pdm_gen\.din\[15\]
*568 pdm_gen\.din\[1\]
*569 pdm_gen\.din\[2\]
*570 pdm_gen\.din\[3\]
*571 pdm_gen\.din\[4\]
*572 pdm_gen\.din\[5\]
*573 pdm_gen\.din\[6\]
*574 pdm_gen\.din\[7\]
*575 pdm_gen\.din\[8\]
*576 pdm_gen\.din\[9\]
*577 pdm_gen\.din_reg\[0\]
*578 pdm_gen\.din_reg\[10\]
*579 pdm_gen\.din_reg\[11\]
*580 pdm_gen\.din_reg\[12\]
*581 pdm_gen\.din_reg\[13\]
*582 pdm_gen\.din_reg\[14\]
*583 pdm_gen\.din_reg\[15\]
*584 pdm_gen\.din_reg\[1\]
*585 pdm_gen\.din_reg\[2\]
*586 pdm_gen\.din_reg\[3\]
*587 pdm_gen\.din_reg\[4\]
*588 pdm_gen\.din_reg\[5\]
*589 pdm_gen\.din_reg\[6\]
*590 pdm_gen\.din_reg\[7\]
*591 pdm_gen\.din_reg\[8\]
*592 pdm_gen\.din_reg\[9\]
*593 pdm_gen\.dout
*594 pdm_gen\.error\[0\]
*595 pdm_gen\.error\[10\]
*596 pdm_gen\.error\[11\]
*597 pdm_gen\.error\[12\]
*598 pdm_gen\.error\[13\]
*599 pdm_gen\.error\[14\]
*600 pdm_gen\.error\[15\]
*601 pdm_gen\.error\[1\]
*602 pdm_gen\.error\[2\]
*603 pdm_gen\.error\[3\]
*604 pdm_gen\.error\[4\]
*605 pdm_gen\.error\[5\]
*606 pdm_gen\.error\[6\]
*607 pdm_gen\.error\[7\]
*608 pdm_gen\.error\[8\]
*609 pdm_gen\.error\[9\]
*610 pdm_gen\.error_0\[0\]
*611 pdm_gen\.error_0\[10\]
*612 pdm_gen\.error_0\[11\]
*613 pdm_gen\.error_0\[12\]
*614 pdm_gen\.error_0\[13\]
*615 pdm_gen\.error_0\[14\]
*616 pdm_gen\.error_0\[15\]
*617 pdm_gen\.error_0\[1\]
*618 pdm_gen\.error_0\[2\]
*619 pdm_gen\.error_0\[3\]
*620 pdm_gen\.error_0\[4\]
*621 pdm_gen\.error_0\[5\]
*622 pdm_gen\.error_0\[6\]
*623 pdm_gen\.error_0\[7\]
*624 pdm_gen\.error_0\[8\]
*625 pdm_gen\.error_0\[9\]
*626 pdm_gen\.error_1\[0\]
*627 pdm_gen\.error_1\[10\]
*628 pdm_gen\.error_1\[11\]
*629 pdm_gen\.error_1\[12\]
*630 pdm_gen\.error_1\[13\]
*631 pdm_gen\.error_1\[14\]
*632 pdm_gen\.error_1\[15\]
*633 pdm_gen\.error_1\[1\]
*634 pdm_gen\.error_1\[2\]
*635 pdm_gen\.error_1\[3\]
*636 pdm_gen\.error_1\[4\]
*637 pdm_gen\.error_1\[5\]
*638 pdm_gen\.error_1\[6\]
*639 pdm_gen\.error_1\[7\]
*640 pdm_gen\.error_1\[8\]
*641 pdm_gen\.error_1\[9\]
*642 tri_inst\.ctr\[10\]
*643 tri_inst\.ctr\[11\]
*644 tri_inst\.ctr\[12\]
*645 tri_inst\.ctr\[13\]
*646 tri_inst\.ctr\[14\]
*647 tri_inst\.ctr\[15\]
*648 tri_inst\.ctr\[16\]
*649 tri_inst\.ctr\[17\]
*650 tri_inst\.ctr\[18\]
*651 tri_inst\.ctr\[19\]
*652 tri_inst\.ctr\[20\]
*653 tri_inst\.ctr\[21\]
*654 tri_inst\.ctr\[22\]
*655 tri_inst\.ctr\[23\]
*656 tri_inst\.ctr\[24\]
*657 tri_inst\.ctr\[25\]
*658 tri_inst\.ctr\[2\]
*659 tri_inst\.ctr\[3\]
*660 tri_inst\.ctr\[4\]
*661 tri_inst\.ctr\[5\]
*662 tri_inst\.ctr\[6\]
*663 tri_inst\.ctr\[7\]
*664 tri_inst\.ctr\[8\]
*665 tri_inst\.ctr\[9\]
*666 tri_inst\.dir\[10\]
*667 tri_inst\.dir\[11\]
*668 tri_inst\.dir\[12\]
*669 tri_inst\.dir\[13\]
*670 tri_inst\.dir\[14\]
*671 tri_inst\.dir\[15\]
*672 tri_inst\.dir\[16\]
*673 tri_inst\.dir\[17\]
*674 tri_inst\.dir\[18\]
*675 tri_inst\.dir\[2\]
*676 tri_inst\.dir\[3\]
*677 tri_inst\.dir\[4\]
*678 tri_inst\.dir\[5\]
*679 tri_inst\.dir\[6\]
*680 tri_inst\.dir\[7\]
*681 tri_inst\.dir\[8\]
*682 tri_inst\.dir\[9\]
*683 FILLER_0_0_109
*684 FILLER_0_0_113
*685 FILLER_0_0_125
*686 FILLER_0_0_137
*687 FILLER_0_0_141
*688 FILLER_0_0_15
*689 FILLER_0_0_153
*690 FILLER_0_0_165
*691 FILLER_0_0_169
*692 FILLER_0_0_181
*693 FILLER_0_0_193
*694 FILLER_0_0_197
*695 FILLER_0_0_209
*696 FILLER_0_0_221
*697 FILLER_0_0_225
*698 FILLER_0_0_237
*699 FILLER_0_0_249
*700 FILLER_0_0_253
*701 FILLER_0_0_265
*702 FILLER_0_0_27
*703 FILLER_0_0_277
*704 FILLER_0_0_281
*705 FILLER_0_0_29
*706 FILLER_0_0_293
*707 FILLER_0_0_3
*708 FILLER_0_0_305
*709 FILLER_0_0_309
*710 FILLER_0_0_321
*711 FILLER_0_0_333
*712 FILLER_0_0_337
*713 FILLER_0_0_349
*714 FILLER_0_0_41
*715 FILLER_0_0_53
*716 FILLER_0_0_57
*717 FILLER_0_0_69
*718 FILLER_0_0_81
*719 FILLER_0_0_85
*720 FILLER_0_0_97
*721 FILLER_0_10_109
*722 FILLER_0_10_121
*723 FILLER_0_10_133
*724 FILLER_0_10_139
*725 FILLER_0_10_141
*726 FILLER_0_10_15
*727 FILLER_0_10_153
*728 FILLER_0_10_165
*729 FILLER_0_10_177
*730 FILLER_0_10_189
*731 FILLER_0_10_195
*732 FILLER_0_10_197
*733 FILLER_0_10_209
*734 FILLER_0_10_221
*735 FILLER_0_10_233
*736 FILLER_0_10_245
*737 FILLER_0_10_251
*738 FILLER_0_10_253
*739 FILLER_0_10_265
*740 FILLER_0_10_27
*741 FILLER_0_10_277
*742 FILLER_0_10_289
*743 FILLER_0_10_29
*744 FILLER_0_10_3
*745 FILLER_0_10_301
*746 FILLER_0_10_307
*747 FILLER_0_10_309
*748 FILLER_0_10_321
*749 FILLER_0_10_333
*750 FILLER_0_10_345
*751 FILLER_0_10_41
*752 FILLER_0_10_53
*753 FILLER_0_10_65
*754 FILLER_0_10_77
*755 FILLER_0_10_83
*756 FILLER_0_10_85
*757 FILLER_0_10_97
*758 FILLER_0_11_105
*759 FILLER_0_11_111
*760 FILLER_0_11_113
*761 FILLER_0_11_125
*762 FILLER_0_11_147
*763 FILLER_0_11_15
*764 FILLER_0_11_159
*765 FILLER_0_11_167
*766 FILLER_0_11_169
*767 FILLER_0_11_181
*768 FILLER_0_11_193
*769 FILLER_0_11_205
*770 FILLER_0_11_217
*771 FILLER_0_11_223
*772 FILLER_0_11_225
*773 FILLER_0_11_237
*774 FILLER_0_11_249
*775 FILLER_0_11_261
*776 FILLER_0_11_27
*777 FILLER_0_11_273
*778 FILLER_0_11_279
*779 FILLER_0_11_281
*780 FILLER_0_11_293
*781 FILLER_0_11_3
*782 FILLER_0_11_305
*783 FILLER_0_11_317
*784 FILLER_0_11_329
*785 FILLER_0_11_335
*786 FILLER_0_11_337
*787 FILLER_0_11_349
*788 FILLER_0_11_39
*789 FILLER_0_11_51
*790 FILLER_0_11_55
*791 FILLER_0_11_57
*792 FILLER_0_11_69
*793 FILLER_0_11_81
*794 FILLER_0_11_93
*795 FILLER_0_12_109
*796 FILLER_0_12_121
*797 FILLER_0_12_133
*798 FILLER_0_12_139
*799 FILLER_0_12_141
*800 FILLER_0_12_15
*801 FILLER_0_12_153
*802 FILLER_0_12_165
*803 FILLER_0_12_177
*804 FILLER_0_12_189
*805 FILLER_0_12_195
*806 FILLER_0_12_197
*807 FILLER_0_12_205
*808 FILLER_0_12_212
*809 FILLER_0_12_230
*810 FILLER_0_12_242
*811 FILLER_0_12_250
*812 FILLER_0_12_253
*813 FILLER_0_12_259
*814 FILLER_0_12_27
*815 FILLER_0_12_276
*816 FILLER_0_12_288
*817 FILLER_0_12_29
*818 FILLER_0_12_3
*819 FILLER_0_12_300
*820 FILLER_0_12_309
*821 FILLER_0_12_321
*822 FILLER_0_12_333
*823 FILLER_0_12_345
*824 FILLER_0_12_41
*825 FILLER_0_12_53
*826 FILLER_0_12_65
*827 FILLER_0_12_77
*828 FILLER_0_12_83
*829 FILLER_0_12_85
*830 FILLER_0_12_97
*831 FILLER_0_13_105
*832 FILLER_0_13_111
*833 FILLER_0_13_113
*834 FILLER_0_13_125
*835 FILLER_0_13_133
*836 FILLER_0_13_15
*837 FILLER_0_13_164
*838 FILLER_0_13_169
*839 FILLER_0_13_177
*840 FILLER_0_13_185
*841 FILLER_0_13_205
*842 FILLER_0_13_223
*843 FILLER_0_13_233
*844 FILLER_0_13_245
*845 FILLER_0_13_27
*846 FILLER_0_13_277
*847 FILLER_0_13_289
*848 FILLER_0_13_3
*849 FILLER_0_13_301
*850 FILLER_0_13_307
*851 FILLER_0_13_329
*852 FILLER_0_13_335
*853 FILLER_0_13_337
*854 FILLER_0_13_349
*855 FILLER_0_13_39
*856 FILLER_0_13_51
*857 FILLER_0_13_55
*858 FILLER_0_13_57
*859 FILLER_0_13_69
*860 FILLER_0_13_81
*861 FILLER_0_13_93
*862 FILLER_0_14_109
*863 FILLER_0_14_121
*864 FILLER_0_14_136
*865 FILLER_0_14_141
*866 FILLER_0_14_15
*867 FILLER_0_14_171
*868 FILLER_0_14_188
*869 FILLER_0_14_197
*870 FILLER_0_14_208
*871 FILLER_0_14_234
*872 FILLER_0_14_242
*873 FILLER_0_14_253
*874 FILLER_0_14_27
*875 FILLER_0_14_29
*876 FILLER_0_14_3
*877 FILLER_0_14_305
*878 FILLER_0_14_309
*879 FILLER_0_14_342
*880 FILLER_0_14_350
*881 FILLER_0_14_41
*882 FILLER_0_14_53
*883 FILLER_0_14_65
*884 FILLER_0_14_77
*885 FILLER_0_14_83
*886 FILLER_0_14_85
*887 FILLER_0_14_97
*888 FILLER_0_15_105
*889 FILLER_0_15_111
*890 FILLER_0_15_113
*891 FILLER_0_15_128
*892 FILLER_0_15_142
*893 FILLER_0_15_146
*894 FILLER_0_15_15
*895 FILLER_0_15_155
*896 FILLER_0_15_167
*897 FILLER_0_15_195
*898 FILLER_0_15_207
*899 FILLER_0_15_213
*900 FILLER_0_15_221
*901 FILLER_0_15_244
*902 FILLER_0_15_252
*903 FILLER_0_15_265
*904 FILLER_0_15_27
*905 FILLER_0_15_277
*906 FILLER_0_15_3
*907 FILLER_0_15_309
*908 FILLER_0_15_321
*909 FILLER_0_15_330
*910 FILLER_0_15_345
*911 FILLER_0_15_39
*912 FILLER_0_15_51
*913 FILLER_0_15_55
*914 FILLER_0_15_57
*915 FILLER_0_15_69
*916 FILLER_0_15_81
*917 FILLER_0_15_93
*918 FILLER_0_16_109
*919 FILLER_0_16_138
*920 FILLER_0_16_141
*921 FILLER_0_16_148
*922 FILLER_0_16_15
*923 FILLER_0_16_160
*924 FILLER_0_16_192
*925 FILLER_0_16_197
*926 FILLER_0_16_209
*927 FILLER_0_16_239
*928 FILLER_0_16_251
*929 FILLER_0_16_253
*930 FILLER_0_16_261
*931 FILLER_0_16_27
*932 FILLER_0_16_275
*933 FILLER_0_16_283
*934 FILLER_0_16_288
*935 FILLER_0_16_29
*936 FILLER_0_16_296
*937 FILLER_0_16_3
*938 FILLER_0_16_307
*939 FILLER_0_16_309
*940 FILLER_0_16_321
*941 FILLER_0_16_346
*942 FILLER_0_16_350
*943 FILLER_0_16_41
*944 FILLER_0_16_53
*945 FILLER_0_16_65
*946 FILLER_0_16_77
*947 FILLER_0_16_83
*948 FILLER_0_16_85
*949 FILLER_0_16_97
*950 FILLER_0_17_105
*951 FILLER_0_17_111
*952 FILLER_0_17_113
*953 FILLER_0_17_125
*954 FILLER_0_17_143
*955 FILLER_0_17_15
*956 FILLER_0_17_155
*957 FILLER_0_17_167
*958 FILLER_0_17_169
*959 FILLER_0_17_200
*960 FILLER_0_17_208
*961 FILLER_0_17_225
*962 FILLER_0_17_247
*963 FILLER_0_17_259
*964 FILLER_0_17_27
*965 FILLER_0_17_271
*966 FILLER_0_17_279
*967 FILLER_0_17_281
*968 FILLER_0_17_293
*969 FILLER_0_17_3
*970 FILLER_0_17_316
*971 FILLER_0_17_342
*972 FILLER_0_17_350
*973 FILLER_0_17_39
*974 FILLER_0_17_51
*975 FILLER_0_17_55
*976 FILLER_0_17_57
*977 FILLER_0_17_93
*978 FILLER_0_18_109
*979 FILLER_0_18_121
*980 FILLER_0_18_133
*981 FILLER_0_18_139
*982 FILLER_0_18_141
*983 FILLER_0_18_145
*984 FILLER_0_18_15
*985 FILLER_0_18_181
*986 FILLER_0_18_193
*987 FILLER_0_18_197
*988 FILLER_0_18_211
*989 FILLER_0_18_231
*990 FILLER_0_18_235
*991 FILLER_0_18_253
*992 FILLER_0_18_265
*993 FILLER_0_18_27
*994 FILLER_0_18_29
*995 FILLER_0_18_3
*996 FILLER_0_18_309
*997 FILLER_0_18_317
*998 FILLER_0_18_321
*999 FILLER_0_18_346
*1000 FILLER_0_18_350
*1001 FILLER_0_18_41
*1002 FILLER_0_18_53
*1003 FILLER_0_18_85
*1004 FILLER_0_19_127
*1005 FILLER_0_19_147
*1006 FILLER_0_19_15
*1007 FILLER_0_19_156
*1008 FILLER_0_19_165
*1009 FILLER_0_19_169
*1010 FILLER_0_19_176
*1011 FILLER_0_19_188
*1012 FILLER_0_19_200
*1013 FILLER_0_19_212
*1014 FILLER_0_19_249
*1015 FILLER_0_19_267
*1016 FILLER_0_19_27
*1017 FILLER_0_19_271
*1018 FILLER_0_19_3
*1019 FILLER_0_19_303
*1020 FILLER_0_19_316
*1021 FILLER_0_19_324
*1022 FILLER_0_19_335
*1023 FILLER_0_19_345
*1024 FILLER_0_19_39
*1025 FILLER_0_19_51
*1026 FILLER_0_19_55
*1027 FILLER_0_19_57
*1028 FILLER_0_19_69
*1029 FILLER_0_19_77
*1030 FILLER_0_1_105
*1031 FILLER_0_1_111
*1032 FILLER_0_1_113
*1033 FILLER_0_1_125
*1034 FILLER_0_1_137
*1035 FILLER_0_1_149
*1036 FILLER_0_1_15
*1037 FILLER_0_1_161
*1038 FILLER_0_1_167
*1039 FILLER_0_1_169
*1040 FILLER_0_1_181
*1041 FILLER_0_1_193
*1042 FILLER_0_1_205
*1043 FILLER_0_1_217
*1044 FILLER_0_1_223
*1045 FILLER_0_1_225
*1046 FILLER_0_1_237
*1047 FILLER_0_1_249
*1048 FILLER_0_1_261
*1049 FILLER_0_1_27
*1050 FILLER_0_1_273
*1051 FILLER_0_1_279
*1052 FILLER_0_1_281
*1053 FILLER_0_1_293
*1054 FILLER_0_1_3
*1055 FILLER_0_1_305
*1056 FILLER_0_1_317
*1057 FILLER_0_1_329
*1058 FILLER_0_1_335
*1059 FILLER_0_1_337
*1060 FILLER_0_1_349
*1061 FILLER_0_1_39
*1062 FILLER_0_1_51
*1063 FILLER_0_1_55
*1064 FILLER_0_1_57
*1065 FILLER_0_1_69
*1066 FILLER_0_1_81
*1067 FILLER_0_1_93
*1068 FILLER_0_20_104
*1069 FILLER_0_20_129
*1070 FILLER_0_20_137
*1071 FILLER_0_20_15
*1072 FILLER_0_20_157
*1073 FILLER_0_20_191
*1074 FILLER_0_20_195
*1075 FILLER_0_20_229
*1076 FILLER_0_20_233
*1077 FILLER_0_20_24
*1078 FILLER_0_20_250
*1079 FILLER_0_20_253
*1080 FILLER_0_20_257
*1081 FILLER_0_20_3
*1082 FILLER_0_20_301
*1083 FILLER_0_20_306
*1084 FILLER_0_20_309
*1085 FILLER_0_20_327
*1086 FILLER_0_20_339
*1087 FILLER_0_20_45
*1088 FILLER_0_20_57
*1089 FILLER_0_20_69
*1090 FILLER_0_20_77
*1091 FILLER_0_21_108
*1092 FILLER_0_21_129
*1093 FILLER_0_21_135
*1094 FILLER_0_21_185
*1095 FILLER_0_21_211
*1096 FILLER_0_21_223
*1097 FILLER_0_21_273
*1098 FILLER_0_21_279
*1099 FILLER_0_21_281
*1100 FILLER_0_21_295
*1101 FILLER_0_21_3
*1102 FILLER_0_21_345
*1103 FILLER_0_21_38
*1104 FILLER_0_21_57
*1105 FILLER_0_21_67
*1106 FILLER_0_21_75
*1107 FILLER_0_21_9
*1108 FILLER_0_22_102
*1109 FILLER_0_22_109
*1110 FILLER_0_22_11
*1111 FILLER_0_22_126
*1112 FILLER_0_22_138
*1113 FILLER_0_22_141
*1114 FILLER_0_22_182
*1115 FILLER_0_22_194
*1116 FILLER_0_22_197
*1117 FILLER_0_22_235
*1118 FILLER_0_22_247
*1119 FILLER_0_22_25
*1120 FILLER_0_22_251
*1121 FILLER_0_22_277
*1122 FILLER_0_22_289
*1123 FILLER_0_22_29
*1124 FILLER_0_22_3
*1125 FILLER_0_22_301
*1126 FILLER_0_22_307
*1127 FILLER_0_22_309
*1128 FILLER_0_22_320
*1129 FILLER_0_22_33
*1130 FILLER_0_22_337
*1131 FILLER_0_22_349
*1132 FILLER_0_22_74
*1133 FILLER_0_22_82
*1134 FILLER_0_22_96
*1135 FILLER_0_23_11
*1136 FILLER_0_23_119
*1137 FILLER_0_23_131
*1138 FILLER_0_23_137
*1139 FILLER_0_23_165
*1140 FILLER_0_23_177
*1141 FILLER_0_23_189
*1142 FILLER_0_23_201
*1143 FILLER_0_23_225
*1144 FILLER_0_23_237
*1145 FILLER_0_23_249
*1146 FILLER_0_23_258
*1147 FILLER_0_23_278
*1148 FILLER_0_23_284
*1149 FILLER_0_23_292
*1150 FILLER_0_23_3
*1151 FILLER_0_23_30
*1152 FILLER_0_23_327
*1153 FILLER_0_23_335
*1154 FILLER_0_23_337
*1155 FILLER_0_23_349
*1156 FILLER_0_23_42
*1157 FILLER_0_23_57
*1158 FILLER_0_23_78
*1159 FILLER_0_23_90
*1160 FILLER_0_23_98
*1161 FILLER_0_24_119
*1162 FILLER_0_24_131
*1163 FILLER_0_24_141
*1164 FILLER_0_24_145
*1165 FILLER_0_24_163
*1166 FILLER_0_24_175
*1167 FILLER_0_24_179
*1168 FILLER_0_24_197
*1169 FILLER_0_24_201
*1170 FILLER_0_24_211
*1171 FILLER_0_24_226
*1172 FILLER_0_24_234
*1173 FILLER_0_24_240
*1174 FILLER_0_24_248
*1175 FILLER_0_24_281
*1176 FILLER_0_24_29
*1177 FILLER_0_24_3
*1178 FILLER_0_24_306
*1179 FILLER_0_24_309
*1180 FILLER_0_24_320
*1181 FILLER_0_24_332
*1182 FILLER_0_24_344
*1183 FILLER_0_24_350
*1184 FILLER_0_24_39
*1185 FILLER_0_24_51
*1186 FILLER_0_24_77
*1187 FILLER_0_24_83
*1188 FILLER_0_24_85
*1189 FILLER_0_25_11
*1190 FILLER_0_25_113
*1191 FILLER_0_25_125
*1192 FILLER_0_25_153
*1193 FILLER_0_25_167
*1194 FILLER_0_25_174
*1195 FILLER_0_25_178
*1196 FILLER_0_25_19
*1197 FILLER_0_25_199
*1198 FILLER_0_25_235
*1199 FILLER_0_25_247
*1200 FILLER_0_25_25
*1201 FILLER_0_25_255
*1202 FILLER_0_25_278
*1203 FILLER_0_25_281
*1204 FILLER_0_25_293
*1205 FILLER_0_25_3
*1206 FILLER_0_25_305
*1207 FILLER_0_25_31
*1208 FILLER_0_25_314
*1209 FILLER_0_25_335
*1210 FILLER_0_25_337
*1211 FILLER_0_25_349
*1212 FILLER_0_25_57
*1213 FILLER_0_25_72
*1214 FILLER_0_26_119
*1215 FILLER_0_26_131
*1216 FILLER_0_26_141
*1217 FILLER_0_26_15
*1218 FILLER_0_26_165
*1219 FILLER_0_26_169
*1220 FILLER_0_26_176
*1221 FILLER_0_26_191
*1222 FILLER_0_26_195
*1223 FILLER_0_26_197
*1224 FILLER_0_26_206
*1225 FILLER_0_26_226
*1226 FILLER_0_26_238
*1227 FILLER_0_26_247
*1228 FILLER_0_26_251
*1229 FILLER_0_26_253
*1230 FILLER_0_26_27
*1231 FILLER_0_26_284
*1232 FILLER_0_26_29
*1233 FILLER_0_26_296
*1234 FILLER_0_26_3
*1235 FILLER_0_26_346
*1236 FILLER_0_26_350
*1237 FILLER_0_26_49
*1238 FILLER_0_26_55
*1239 FILLER_0_26_75
*1240 FILLER_0_26_83
*1241 FILLER_0_26_85
*1242 FILLER_0_26_97
*1243 FILLER_0_27_137
*1244 FILLER_0_27_15
*1245 FILLER_0_27_166
*1246 FILLER_0_27_172
*1247 FILLER_0_27_184
*1248 FILLER_0_27_196
*1249 FILLER_0_27_223
*1250 FILLER_0_27_225
*1251 FILLER_0_27_237
*1252 FILLER_0_27_249
*1253 FILLER_0_27_257
*1254 FILLER_0_27_279
*1255 FILLER_0_27_284
*1256 FILLER_0_27_296
*1257 FILLER_0_27_3
*1258 FILLER_0_27_333
*1259 FILLER_0_27_337
*1260 FILLER_0_27_349
*1261 FILLER_0_27_40
*1262 FILLER_0_27_57
*1263 FILLER_0_27_91
*1264 FILLER_0_27_95
*1265 FILLER_0_28_116
*1266 FILLER_0_28_128
*1267 FILLER_0_28_134
*1268 FILLER_0_28_149
*1269 FILLER_0_28_167
*1270 FILLER_0_28_179
*1271 FILLER_0_28_191
*1272 FILLER_0_28_195
*1273 FILLER_0_28_197
*1274 FILLER_0_28_209
*1275 FILLER_0_28_228
*1276 FILLER_0_28_240
*1277 FILLER_0_28_253
*1278 FILLER_0_28_29
*1279 FILLER_0_28_290
*1280 FILLER_0_28_3
*1281 FILLER_0_28_302
*1282 FILLER_0_28_309
*1283 FILLER_0_28_321
*1284 FILLER_0_28_325
*1285 FILLER_0_28_337
*1286 FILLER_0_28_349
*1287 FILLER_0_28_45
*1288 FILLER_0_28_53
*1289 FILLER_0_28_64
*1290 FILLER_0_28_82
*1291 FILLER_0_28_90
*1292 FILLER_0_29_11
*1293 FILLER_0_29_121
*1294 FILLER_0_29_133
*1295 FILLER_0_29_137
*1296 FILLER_0_29_164
*1297 FILLER_0_29_185
*1298 FILLER_0_29_197
*1299 FILLER_0_29_222
*1300 FILLER_0_29_231
*1301 FILLER_0_29_243
*1302 FILLER_0_29_255
*1303 FILLER_0_29_297
*1304 FILLER_0_29_3
*1305 FILLER_0_29_309
*1306 FILLER_0_29_321
*1307 FILLER_0_29_337
*1308 FILLER_0_29_349
*1309 FILLER_0_29_50
*1310 FILLER_0_29_57
*1311 FILLER_0_29_87
*1312 FILLER_0_29_95
*1313 FILLER_0_2_109
*1314 FILLER_0_2_121
*1315 FILLER_0_2_133
*1316 FILLER_0_2_139
*1317 FILLER_0_2_141
*1318 FILLER_0_2_15
*1319 FILLER_0_2_153
*1320 FILLER_0_2_165
*1321 FILLER_0_2_177
*1322 FILLER_0_2_189
*1323 FILLER_0_2_195
*1324 FILLER_0_2_197
*1325 FILLER_0_2_209
*1326 FILLER_0_2_221
*1327 FILLER_0_2_233
*1328 FILLER_0_2_245
*1329 FILLER_0_2_251
*1330 FILLER_0_2_253
*1331 FILLER_0_2_265
*1332 FILLER_0_2_27
*1333 FILLER_0_2_277
*1334 FILLER_0_2_289
*1335 FILLER_0_2_29
*1336 FILLER_0_2_3
*1337 FILLER_0_2_301
*1338 FILLER_0_2_307
*1339 FILLER_0_2_309
*1340 FILLER_0_2_321
*1341 FILLER_0_2_333
*1342 FILLER_0_2_345
*1343 FILLER_0_2_41
*1344 FILLER_0_2_53
*1345 FILLER_0_2_65
*1346 FILLER_0_2_77
*1347 FILLER_0_2_83
*1348 FILLER_0_2_85
*1349 FILLER_0_2_97
*1350 FILLER_0_30_104
*1351 FILLER_0_30_132
*1352 FILLER_0_30_15
*1353 FILLER_0_30_162
*1354 FILLER_0_30_176
*1355 FILLER_0_30_194
*1356 FILLER_0_30_197
*1357 FILLER_0_30_201
*1358 FILLER_0_30_214
*1359 FILLER_0_30_231
*1360 FILLER_0_30_235
*1361 FILLER_0_30_253
*1362 FILLER_0_30_265
*1363 FILLER_0_30_273
*1364 FILLER_0_30_296
*1365 FILLER_0_30_3
*1366 FILLER_0_30_309
*1367 FILLER_0_30_339
*1368 FILLER_0_30_42
*1369 FILLER_0_30_54
*1370 FILLER_0_30_80
*1371 FILLER_0_30_96
*1372 FILLER_0_31_103
*1373 FILLER_0_31_113
*1374 FILLER_0_31_119
*1375 FILLER_0_31_131
*1376 FILLER_0_31_139
*1377 FILLER_0_31_15
*1378 FILLER_0_31_156
*1379 FILLER_0_31_163
*1380 FILLER_0_31_167
*1381 FILLER_0_31_169
*1382 FILLER_0_31_173
*1383 FILLER_0_31_181
*1384 FILLER_0_31_194
*1385 FILLER_0_31_23
*1386 FILLER_0_31_265
*1387 FILLER_0_31_271
*1388 FILLER_0_31_279
*1389 FILLER_0_31_298
*1390 FILLER_0_31_3
*1391 FILLER_0_31_306
*1392 FILLER_0_31_349
*1393 FILLER_0_31_40
*1394 FILLER_0_31_52
*1395 FILLER_0_31_57
*1396 FILLER_0_31_93
*1397 FILLER_0_32_127
*1398 FILLER_0_32_139
*1399 FILLER_0_32_141
*1400 FILLER_0_32_147
*1401 FILLER_0_32_15
*1402 FILLER_0_32_157
*1403 FILLER_0_32_163
*1404 FILLER_0_32_169
*1405 FILLER_0_32_186
*1406 FILLER_0_32_194
*1407 FILLER_0_32_197
*1408 FILLER_0_32_203
*1409 FILLER_0_32_27
*1410 FILLER_0_32_271
*1411 FILLER_0_32_285
*1412 FILLER_0_32_29
*1413 FILLER_0_32_3
*1414 FILLER_0_32_303
*1415 FILLER_0_32_307
*1416 FILLER_0_32_309
*1417 FILLER_0_32_313
*1418 FILLER_0_32_339
*1419 FILLER_0_32_53
*1420 FILLER_0_32_65
*1421 FILLER_0_32_85
*1422 FILLER_0_32_94
*1423 FILLER_0_33_106
*1424 FILLER_0_33_131
*1425 FILLER_0_33_145
*1426 FILLER_0_33_176
*1427 FILLER_0_33_195
*1428 FILLER_0_33_207
*1429 FILLER_0_33_225
*1430 FILLER_0_33_240
*1431 FILLER_0_33_250
*1432 FILLER_0_33_281
*1433 FILLER_0_33_3
*1434 FILLER_0_33_309
*1435 FILLER_0_33_321
*1436 FILLER_0_33_333
*1437 FILLER_0_33_337
*1438 FILLER_0_33_349
*1439 FILLER_0_33_42
*1440 FILLER_0_33_54
*1441 FILLER_0_33_57
*1442 FILLER_0_33_69
*1443 FILLER_0_33_85
*1444 FILLER_0_33_9
*1445 FILLER_0_33_97
*1446 FILLER_0_34_109
*1447 FILLER_0_34_124
*1448 FILLER_0_34_139
*1449 FILLER_0_34_141
*1450 FILLER_0_34_149
*1451 FILLER_0_34_159
*1452 FILLER_0_34_175
*1453 FILLER_0_34_187
*1454 FILLER_0_34_195
*1455 FILLER_0_34_197
*1456 FILLER_0_34_215
*1457 FILLER_0_34_22
*1458 FILLER_0_34_239
*1459 FILLER_0_34_26
*1460 FILLER_0_34_260
*1461 FILLER_0_34_270
*1462 FILLER_0_34_288
*1463 FILLER_0_34_3
*1464 FILLER_0_34_317
*1465 FILLER_0_34_329
*1466 FILLER_0_34_336
*1467 FILLER_0_34_348
*1468 FILLER_0_34_44
*1469 FILLER_0_34_52
*1470 FILLER_0_34_58
*1471 FILLER_0_34_80
*1472 FILLER_0_34_85
*1473 FILLER_0_34_97
*1474 FILLER_0_35_107
*1475 FILLER_0_35_111
*1476 FILLER_0_35_116
*1477 FILLER_0_35_120
*1478 FILLER_0_35_124
*1479 FILLER_0_35_132
*1480 FILLER_0_35_139
*1481 FILLER_0_35_149
*1482 FILLER_0_35_15
*1483 FILLER_0_35_155
*1484 FILLER_0_35_159
*1485 FILLER_0_35_167
*1486 FILLER_0_35_169
*1487 FILLER_0_35_181
*1488 FILLER_0_35_193
*1489 FILLER_0_35_201
*1490 FILLER_0_35_231
*1491 FILLER_0_35_244
*1492 FILLER_0_35_257
*1493 FILLER_0_35_261
*1494 FILLER_0_35_281
*1495 FILLER_0_35_3
*1496 FILLER_0_35_314
*1497 FILLER_0_35_322
*1498 FILLER_0_35_334
*1499 FILLER_0_35_346
*1500 FILLER_0_35_350
*1501 FILLER_0_35_51
*1502 FILLER_0_35_55
*1503 FILLER_0_35_73
*1504 FILLER_0_35_95
*1505 FILLER_0_36_135
*1506 FILLER_0_36_139
*1507 FILLER_0_36_141
*1508 FILLER_0_36_15
*1509 FILLER_0_36_151
*1510 FILLER_0_36_170
*1511 FILLER_0_36_174
*1512 FILLER_0_36_181
*1513 FILLER_0_36_189
*1514 FILLER_0_36_213
*1515 FILLER_0_36_217
*1516 FILLER_0_36_226
*1517 FILLER_0_36_232
*1518 FILLER_0_36_250
*1519 FILLER_0_36_265
*1520 FILLER_0_36_3
*1521 FILLER_0_36_305
*1522 FILLER_0_36_45
*1523 FILLER_0_36_67
*1524 FILLER_0_36_97
*1525 FILLER_0_37_104
*1526 FILLER_0_37_11
*1527 FILLER_0_37_141
*1528 FILLER_0_37_150
*1529 FILLER_0_37_177
*1530 FILLER_0_37_208
*1531 FILLER_0_37_212
*1532 FILLER_0_37_219
*1533 FILLER_0_37_223
*1534 FILLER_0_37_225
*1535 FILLER_0_37_233
*1536 FILLER_0_37_246
*1537 FILLER_0_37_255
*1538 FILLER_0_37_288
*1539 FILLER_0_37_3
*1540 FILLER_0_37_313
*1541 FILLER_0_37_319
*1542 FILLER_0_37_342
*1543 FILLER_0_37_350
*1544 FILLER_0_37_36
*1545 FILLER_0_37_40
*1546 FILLER_0_37_48
*1547 FILLER_0_37_57
*1548 FILLER_0_37_65
*1549 FILLER_0_37_79
*1550 FILLER_0_37_96
*1551 FILLER_0_38_105
*1552 FILLER_0_38_110
*1553 FILLER_0_38_131
*1554 FILLER_0_38_145
*1555 FILLER_0_38_15
*1556 FILLER_0_38_179
*1557 FILLER_0_38_187
*1558 FILLER_0_38_197
*1559 FILLER_0_38_209
*1560 FILLER_0_38_221
*1561 FILLER_0_38_225
*1562 FILLER_0_38_237
*1563 FILLER_0_38_268
*1564 FILLER_0_38_27
*1565 FILLER_0_38_276
*1566 FILLER_0_38_284
*1567 FILLER_0_38_29
*1568 FILLER_0_38_3
*1569 FILLER_0_38_302
*1570 FILLER_0_38_315
*1571 FILLER_0_38_327
*1572 FILLER_0_38_334
*1573 FILLER_0_38_337
*1574 FILLER_0_38_349
*1575 FILLER_0_38_41
*1576 FILLER_0_38_53
*1577 FILLER_0_38_57
*1578 FILLER_0_38_68
*1579 FILLER_0_38_83
*1580 FILLER_0_3_105
*1581 FILLER_0_3_111
*1582 FILLER_0_3_113
*1583 FILLER_0_3_125
*1584 FILLER_0_3_137
*1585 FILLER_0_3_149
*1586 FILLER_0_3_15
*1587 FILLER_0_3_161
*1588 FILLER_0_3_167
*1589 FILLER_0_3_169
*1590 FILLER_0_3_181
*1591 FILLER_0_3_193
*1592 FILLER_0_3_205
*1593 FILLER_0_3_217
*1594 FILLER_0_3_223
*1595 FILLER_0_3_225
*1596 FILLER_0_3_237
*1597 FILLER_0_3_249
*1598 FILLER_0_3_261
*1599 FILLER_0_3_27
*1600 FILLER_0_3_273
*1601 FILLER_0_3_279
*1602 FILLER_0_3_281
*1603 FILLER_0_3_293
*1604 FILLER_0_3_3
*1605 FILLER_0_3_305
*1606 FILLER_0_3_317
*1607 FILLER_0_3_329
*1608 FILLER_0_3_335
*1609 FILLER_0_3_337
*1610 FILLER_0_3_349
*1611 FILLER_0_3_39
*1612 FILLER_0_3_51
*1613 FILLER_0_3_55
*1614 FILLER_0_3_57
*1615 FILLER_0_3_69
*1616 FILLER_0_3_81
*1617 FILLER_0_3_93
*1618 FILLER_0_4_109
*1619 FILLER_0_4_121
*1620 FILLER_0_4_133
*1621 FILLER_0_4_139
*1622 FILLER_0_4_141
*1623 FILLER_0_4_15
*1624 FILLER_0_4_153
*1625 FILLER_0_4_165
*1626 FILLER_0_4_177
*1627 FILLER_0_4_189
*1628 FILLER_0_4_195
*1629 FILLER_0_4_197
*1630 FILLER_0_4_209
*1631 FILLER_0_4_221
*1632 FILLER_0_4_233
*1633 FILLER_0_4_245
*1634 FILLER_0_4_251
*1635 FILLER_0_4_253
*1636 FILLER_0_4_265
*1637 FILLER_0_4_27