*SPEF "ieee 1481-1999"
*DESIGN "tt_um_wokwi_380410498092232705"
*DATE "11:11:11 Fri 11 11, 1111"
*VENDOR "OpenRCX"
*PROGRAM "Parallel Extraction"
*VERSION "1.0"
*DESIGN_FLOW "NAME_SCOPE LOCAL" "PIN_CAP NONE"
*DIVIDER /
*DELIMITER :
*BUS_DELIMITER []
*T_UNIT 1 NS
*C_UNIT 1 PF
*R_UNIT 1 OHM
*L_UNIT 1 HENRY

*NAME_MAP
*3 clk
*4 ena
*5 rst_n
*6 ui_in[0]
*7 ui_in[1]
*8 ui_in[2]
*9 ui_in[3]
*10 ui_in[4]
*11 ui_in[5]
*12 ui_in[6]
*13 ui_in[7]
*14 uio_in[0]
*15 uio_in[1]
*16 uio_in[2]
*17 uio_in[3]
*18 uio_in[4]
*19 uio_in[5]
*20 uio_in[6]
*21 uio_in[7]
*22 net16
*23 net17
*24 net18
*25 net19
*26 net20
*27 net21
*28 net22
*29 net23
*30 net6
*31 net7
*32 net8
*33 net9
*34 net10
*35 net11
*36 net12
*37 net13
*38 uo_out[0]
*39 uo_out[1]
*40 uo_out[2]
*41 uo_out[3]
*42 net14
*43 net15
*44 uo_out[6]
*45 uo_out[7]
*46 _000_
*47 _001_
*48 _002_
*49 _003_
*50 _004_
*51 _005_
*52 _006_
*53 _007_
*54 _008_
*55 _009_
*56 _010_
*57 _011_
*58 _012_
*59 _013_
*60 _014_
*61 _015_
*62 _016_
*63 _017_
*64 _018_
*65 _019_
*66 _020_
*67 _021_
*68 _022_
*69 _023_
*70 _024_
*71 _025_
*72 _026_
*73 _027_
*74 _028_
*75 _029_
*76 _030_
*77 _031_
*78 _032_
*79 _033_
*80 _034_
*81 _035_
*82 _036_
*83 _037_
*84 _038_
*85 _039_
*86 _040_
*87 _041_
*88 _042_
*89 _043_
*90 _044_
*91 _045_
*92 _046_
*93 _047_
*94 _048_
*95 _049_
*96 _050_
*97 _051_
*98 _052_
*99 _053_
*100 _054_
*101 _055_
*102 _056_
*103 _057_
*104 _058_
*105 _059_
*106 _060_
*107 _061_
*108 _062_
*109 _063_
*110 _064_
*111 _065_
*112 _066_
*113 _067_
*114 _068_
*115 _069_
*116 _070_
*117 _071_
*118 _072_
*119 _073_
*120 _074_
*121 _075_
*122 _076_
*123 _077_
*124 _078_
*125 _079_
*126 _080_
*127 _081_
*128 _082_
*129 _083_
*130 _084_
*131 _085_
*132 _086_
*133 _087_
*134 _088_
*135 _089_
*136 _090_
*137 _091_
*138 _092_
*139 _093_
*140 _094_
*141 _095_
*142 _096_
*143 _097_
*144 _098_
*145 _099_
*146 _100_
*147 _101_
*148 _102_
*149 _103_
*150 _104_
*151 _105_
*152 _106_
*153 _107_
*154 _108_
*155 _109_
*156 _110_
*157 _111_
*158 _112_
*159 _113_
*160 _114_
*161 _115_
*162 _116_
*163 _117_
*164 _118_
*165 _119_
*166 _120_
*167 _121_
*168 _122_
*169 _123_
*170 _124_
*171 _125_
*172 _126_
*173 _127_
*174 _128_
*175 _129_
*176 _130_
*177 _131_
*178 _132_
*179 _133_
*180 _134_
*181 _135_
*182 _136_
*183 _137_
*184 _138_
*185 _139_
*186 clknet_0_clk
*187 clknet_3_0__leaf_clk
*188 clknet_3_1__leaf_clk
*189 clknet_3_2__leaf_clk
*190 clknet_3_3__leaf_clk
*191 clknet_3_4__leaf_clk
*192 clknet_3_5__leaf_clk
*193 clknet_3_6__leaf_clk
*194 clknet_3_7__leaf_clk
*195 flop1\.clk
*196 flop1\.q
*197 flop10\.q
*198 flop11\.q
*199 flop12\.q
*200 flop13\.q
*201 flop14\.q
*202 flop15\.q
*203 flop18\.q
*204 flop19\.q
*205 flop2\.q
*206 flop20\.q
*207 flop21\.q
*208 flop22\.q
*209 flop23\.q
*210 flop24\.q
*211 flop25\.q
*212 flop26\.q
*213 flop27\.q
*214 flop28\.q
*215 flop29\.q
*216 flop30\.q
*217 flop31\.q
*218 flop32\.q
*219 flop33\.q
*220 flop34\.q
*221 flop35\.q
*222 flop36\.q
*223 flop37\.q
*224 flop38\.q
*225 flop39\.q
*226 flop40\.q
*227 flop41\.q
*228 flop42\.q
*229 flop43\.q
*230 flop44\.q
*231 flop45\.q
*232 flop46\.q
*233 flop47\.q
*234 flop48\.q
*235 flop49\.q
*236 flop5\.q
*237 flop50\.q
*238 flop51\.q
*239 flop52\.q
*240 flop53\.q
*241 flop54\.q
*242 flop55\.q
*243 flop56\.q
*244 flop57\.q
*245 flop58\.q
*246 flop59\.q
*247 flop6\.q
*248 flop60\.q
*249 flop61\.q
*250 flop62\.q
*251 flop63\.q
*252 flop64\.q
*253 flop65\.q
*254 flop66\.q
*255 flop67\.q
*256 flop68\.q
*257 flop69\.q
*258 flop7\.q
*259 flop70\.q
*260 flop71\.q
*261 flop72\.q
*262 flop73\.q
*263 flop8\.q
*264 flop9\.q
*265 mux2\.out
*266 net1
*267 net2
*268 net24
*269 net25
*270 net26
*271 net27
*272 net28
*273 net29
*274 net3
*275 net30
*276 net31
*277 net32
*278 net33
*279 net34
*280 net35
*281 net36
*282 net37
*283 net38
*284 net39
*285 net4
*286 net40
*287 net41
*288 net42
*289 net43
*290 net44
*291 net45
*292 net46
*293 net47
*294 net48
*295 net49
*296 net5
*297 net50
*298 net51
*299 net52
*300 net53
*301 net54
*302 net55
*303 net56
*304 net57
*305 net58
*306 net59
*307 net60
*308 net61
*309 net62
*310 net63
*311 net64
*312 net65
*313 net66
*314 net67
*315 net68
*316 net69
*317 net70
*318 net71
*319 net72
*320 net73
*321 net74
*322 net75
*323 net76
*324 net77
*325 net78
*326 net79
*327 net80
*328 net81
*329 net82
*330 net83
*331 net84
*332 net85
*333 net86
*334 net87
*335 net88
*336 net89
*337 FILLER_0_0_109
*338 FILLER_0_0_113
*339 FILLER_0_0_125
*340 FILLER_0_0_137
*341 FILLER_0_0_141
*342 FILLER_0_0_15
*343 FILLER_0_0_153
*344 FILLER_0_0_165
*345 FILLER_0_0_169
*346 FILLER_0_0_181
*347 FILLER_0_0_193
*348 FILLER_0_0_197
*349 FILLER_0_0_209
*350 FILLER_0_0_221
*351 FILLER_0_0_225
*352 FILLER_0_0_237
*353 FILLER_0_0_249
*354 FILLER_0_0_253
*355 FILLER_0_0_265
*356 FILLER_0_0_27
*357 FILLER_0_0_277
*358 FILLER_0_0_281
*359 FILLER_0_0_29
*360 FILLER_0_0_293
*361 FILLER_0_0_3
*362 FILLER_0_0_305
*363 FILLER_0_0_309
*364 FILLER_0_0_321
*365 FILLER_0_0_333
*366 FILLER_0_0_337
*367 FILLER_0_0_349
*368 FILLER_0_0_41
*369 FILLER_0_0_53
*370 FILLER_0_0_57
*371 FILLER_0_0_69
*372 FILLER_0_0_81
*373 FILLER_0_0_85
*374 FILLER_0_0_97
*375 FILLER_0_10_109
*376 FILLER_0_10_121
*377 FILLER_0_10_133
*378 FILLER_0_10_139
*379 FILLER_0_10_141
*380 FILLER_0_10_15
*381 FILLER_0_10_153
*382 FILLER_0_10_165
*383 FILLER_0_10_177
*384 FILLER_0_10_189
*385 FILLER_0_10_195
*386 FILLER_0_10_197
*387 FILLER_0_10_209
*388 FILLER_0_10_221
*389 FILLER_0_10_233
*390 FILLER_0_10_245
*391 FILLER_0_10_251
*392 FILLER_0_10_253
*393 FILLER_0_10_265
*394 FILLER_0_10_27
*395 FILLER_0_10_277
*396 FILLER_0_10_289
*397 FILLER_0_10_29
*398 FILLER_0_10_3
*399 FILLER_0_10_301
*400 FILLER_0_10_307
*401 FILLER_0_10_309
*402 FILLER_0_10_321
*403 FILLER_0_10_333
*404 FILLER_0_10_345
*405 FILLER_0_10_41
*406 FILLER_0_10_53
*407 FILLER_0_10_65
*408 FILLER_0_10_77
*409 FILLER_0_10_83
*410 FILLER_0_10_85
*411 FILLER_0_10_97
*412 FILLER_0_11_105
*413 FILLER_0_11_111
*414 FILLER_0_11_113
*415 FILLER_0_11_125
*416 FILLER_0_11_137
*417 FILLER_0_11_149
*418 FILLER_0_11_15
*419 FILLER_0_11_161
*420 FILLER_0_11_167
*421 FILLER_0_11_169
*422 FILLER_0_11_181
*423 FILLER_0_11_193
*424 FILLER_0_11_205
*425 FILLER_0_11_217
*426 FILLER_0_11_223
*427 FILLER_0_11_225
*428 FILLER_0_11_237
*429 FILLER_0_11_249
*430 FILLER_0_11_261
*431 FILLER_0_11_27
*432 FILLER_0_11_273
*433 FILLER_0_11_279
*434 FILLER_0_11_281
*435 FILLER_0_11_293
*436 FILLER_0_11_3
*437 FILLER_0_11_305
*438 FILLER_0_11_317
*439 FILLER_0_11_329
*440 FILLER_0_11_335
*441 FILLER_0_11_337
*442 FILLER_0_11_349
*443 FILLER_0_11_39
*444 FILLER_0_11_51
*445 FILLER_0_11_55
*446 FILLER_0_11_57
*447 FILLER_0_11_69
*448 FILLER_0_11_81
*449 FILLER_0_11_93
*450 FILLER_0_12_109
*451 FILLER_0_12_121
*452 FILLER_0_12_133
*453 FILLER_0_12_139
*454 FILLER_0_12_141
*455 FILLER_0_12_15
*456 FILLER_0_12_153
*457 FILLER_0_12_165
*458 FILLER_0_12_177
*459 FILLER_0_12_189
*460 FILLER_0_12_195
*461 FILLER_0_12_197
*462 FILLER_0_12_209
*463 FILLER_0_12_221
*464 FILLER_0_12_233
*465 FILLER_0_12_245
*466 FILLER_0_12_251
*467 FILLER_0_12_253
*468 FILLER_0_12_265
*469 FILLER_0_12_27
*470 FILLER_0_12_277
*471 FILLER_0_12_289
*472 FILLER_0_12_29
*473 FILLER_0_12_3
*474 FILLER_0_12_301
*475 FILLER_0_12_307
*476 FILLER_0_12_309
*477 FILLER_0_12_321
*478 FILLER_0_12_333
*479 FILLER_0_12_345
*480 FILLER_0_12_41
*481 FILLER_0_12_53
*482 FILLER_0_12_65
*483 FILLER_0_12_77
*484 FILLER_0_12_83
*485 FILLER_0_12_85
*486 FILLER_0_12_97
*487 FILLER_0_13_105
*488 FILLER_0_13_111
*489 FILLER_0_13_113
*490 FILLER_0_13_125
*491 FILLER_0_13_137
*492 FILLER_0_13_149
*493 FILLER_0_13_15
*494 FILLER_0_13_161
*495 FILLER_0_13_167
*496 FILLER_0_13_169
*497 FILLER_0_13_181
*498 FILLER_0_13_193
*499 FILLER_0_13_205
*500 FILLER_0_13_217
*501 FILLER_0_13_223
*502 FILLER_0_13_225
*503 FILLER_0_13_237
*504 FILLER_0_13_249
*505 FILLER_0_13_261
*506 FILLER_0_13_27
*507 FILLER_0_13_273
*508 FILLER_0_13_279
*509 FILLER_0_13_281
*510 FILLER_0_13_293
*511 FILLER_0_13_3
*512 FILLER_0_13_305
*513 FILLER_0_13_317
*514 FILLER_0_13_329
*515 FILLER_0_13_335
*516 FILLER_0_13_337
*517 FILLER_0_13_349
*518 FILLER_0_13_39
*519 FILLER_0_13_51
*520 FILLER_0_13_55
*521 FILLER_0_13_57
*522 FILLER_0_13_69
*523 FILLER_0_13_81
*524 FILLER_0_13_93
*525 FILLER_0_14_109
*526 FILLER_0_14_121
*527 FILLER_0_14_133
*528 FILLER_0_14_139
*529 FILLER_0_14_141
*530 FILLER_0_14_15
*531 FILLER_0_14_153
*532 FILLER_0_14_165
*533 FILLER_0_14_177
*534 FILLER_0_14_189
*535 FILLER_0_14_195
*536 FILLER_0_14_197
*537 FILLER_0_14_209
*538 FILLER_0_14_221
*539 FILLER_0_14_233
*540 FILLER_0_14_245
*541 FILLER_0_14_251
*542 FILLER_0_14_253
*543 FILLER_0_14_265
*544 FILLER_0_14_27
*545 FILLER_0_14_277
*546 FILLER_0_14_289
*547 FILLER_0_14_29
*548 FILLER_0_14_3
*549 FILLER_0_14_301
*550 FILLER_0_14_307
*551 FILLER_0_14_309
*552 FILLER_0_14_321
*553 FILLER_0_14_333
*554 FILLER_0_14_345
*555 FILLER_0_14_41
*556 FILLER_0_14_53
*557 FILLER_0_14_65
*558 FILLER_0_14_77
*559 FILLER_0_14_83
*560 FILLER_0_14_85
*561 FILLER_0_14_97
*562 FILLER_0_15_105
*563 FILLER_0_15_111
*564 FILLER_0_15_113
*565 FILLER_0_15_125
*566 FILLER_0_15_137
*567 FILLER_0_15_149
*568 FILLER_0_15_15
*569 FILLER_0_15_161
*570 FILLER_0_15_167
*571 FILLER_0_15_169
*572 FILLER_0_15_181
*573 FILLER_0_15_193
*574 FILLER_0_15_205
*575 FILLER_0_15_217
*576 FILLER_0_15_223
*577 FILLER_0_15_225
*578 FILLER_0_15_237
*579 FILLER_0_15_249
*580 FILLER_0_15_261
*581 FILLER_0_15_27
*582 FILLER_0_15_273
*583 FILLER_0_15_279
*584 FILLER_0_15_281
*585 FILLER_0_15_293
*586 FILLER_0_15_3
*587 FILLER_0_15_305
*588 FILLER_0_15_317
*589 FILLER_0_15_329
*590 FILLER_0_15_335
*591 FILLER_0_15_337
*592 FILLER_0_15_349
*593 FILLER_0_15_39
*594 FILLER_0_15_51
*595 FILLER_0_15_55
*596 FILLER_0_15_57
*597 FILLER_0_15_69
*598 FILLER_0_15_81
*599 FILLER_0_15_93
*600 FILLER_0_16_109
*601 FILLER_0_16_121
*602 FILLER_0_16_133
*603 FILLER_0_16_139
*604 FILLER_0_16_141
*605 FILLER_0_16_15
*606 FILLER_0_16_153
*607 FILLER_0_16_165
*608 FILLER_0_16_177
*609 FILLER_0_16_189
*610 FILLER_0_16_195
*611 FILLER_0_16_197
*612 FILLER_0_16_209
*613 FILLER_0_16_221
*614 FILLER_0_16_233
*615 FILLER_0_16_245
*616 FILLER_0_16_251
*617 FILLER_0_16_253
*618 FILLER_0_16_265
*619 FILLER_0_16_27
*620 FILLER_0_16_277
*621 FILLER_0_16_289
*622 FILLER_0_16_29
*623 FILLER_0_16_3
*624 FILLER_0_16_301
*625 FILLER_0_16_307
*626 FILLER_0_16_309
*627 FILLER_0_16_321
*628 FILLER_0_16_333
*629 FILLER_0_16_345
*630 FILLER_0_16_41
*631 FILLER_0_16_53
*632 FILLER_0_16_65
*633 FILLER_0_16_77
*634 FILLER_0_16_83
*635 FILLER_0_16_85
*636 FILLER_0_16_97
*637 FILLER_0_17_105
*638 FILLER_0_17_111
*639 FILLER_0_17_113
*640 FILLER_0_17_125
*641 FILLER_0_17_137
*642 FILLER_0_17_149
*643 FILLER_0_17_15
*644 FILLER_0_17_161
*645 FILLER_0_17_167
*646 FILLER_0_17_169
*647 FILLER_0_17_181
*648 FILLER_0_17_193
*649 FILLER_0_17_205
*650 FILLER_0_17_217
*651 FILLER_0_17_223
*652 FILLER_0_17_225
*653 FILLER_0_17_237
*654 FILLER_0_17_249
*655 FILLER_0_17_261
*656 FILLER_0_17_27
*657 FILLER_0_17_273
*658 FILLER_0_17_279
*659 FILLER_0_17_281
*660 FILLER_0_17_293
*661 FILLER_0_17_3
*662 FILLER_0_17_305
*663 FILLER_0_17_317
*664 FILLER_0_17_329
*665 FILLER_0_17_335
*666 FILLER_0_17_337
*667 FILLER_0_17_349
*668 FILLER_0_17_39
*669 FILLER_0_17_51
*670 FILLER_0_17_55
*671 FILLER_0_17_57
*672 FILLER_0_17_69
*673 FILLER_0_17_81
*674 FILLER_0_17_93
*675 FILLER_0_18_109
*676 FILLER_0_18_121
*677 FILLER_0_18_133
*678 FILLER_0_18_139
*679 FILLER_0_18_141
*680 FILLER_0_18_15
*681 FILLER_0_18_153
*682 FILLER_0_18_165
*683 FILLER_0_18_177
*684 FILLER_0_18_189
*685 FILLER_0_18_195
*686 FILLER_0_18_197
*687 FILLER_0_18_209
*688 FILLER_0_18_221
*689 FILLER_0_18_233
*690 FILLER_0_18_245
*691 FILLER_0_18_251
*692 FILLER_0_18_253
*693 FILLER_0_18_265
*694 FILLER_0_18_27
*695 FILLER_0_18_277
*696 FILLER_0_18_289
*697 FILLER_0_18_29
*698 FILLER_0_18_3
*699 FILLER_0_18_301
*700 FILLER_0_18_307
*701 FILLER_0_18_309
*702 FILLER_0_18_321
*703 FILLER_0_18_333
*704 FILLER_0_18_345
*705 FILLER_0_18_41
*706 FILLER_0_18_53
*707 FILLER_0_18_65
*708 FILLER_0_18_77
*709 FILLER_0_18_83
*710 FILLER_0_18_85
*711 FILLER_0_18_97
*712 FILLER_0_19_105
*713 FILLER_0_19_111
*714 FILLER_0_19_113
*715 FILLER_0_19_125
*716 FILLER_0_19_137
*717 FILLER_0_19_149
*718 FILLER_0_19_15
*719 FILLER_0_19_161
*720 FILLER_0_19_167
*721 FILLER_0_19_169
*722 FILLER_0_19_181
*723 FILLER_0_19_193
*724 FILLER_0_19_205
*725 FILLER_0_19_217
*726 FILLER_0_19_223
*727 FILLER_0_19_225
*728 FILLER_0_19_237
*729 FILLER_0_19_249
*730 FILLER_0_19_261
*731 FILLER_0_19_27
*732 FILLER_0_19_273
*733 FILLER_0_19_279
*734 FILLER_0_19_281
*735 FILLER_0_19_293
*736 FILLER_0_19_3
*737 FILLER_0_19_305
*738 FILLER_0_19_317
*739 FILLER_0_19_329
*740 FILLER_0_19_335
*741 FILLER_0_19_337
*742 FILLER_0_19_349
*743 FILLER_0_19_39
*744 FILLER_0_19_51
*745 FILLER_0_19_55
*746 FILLER_0_19_57
*747 FILLER_0_19_69
*748 FILLER_0_19_81
*749 FILLER_0_19_93
*750 FILLER_0_1_105
*751 FILLER_0_1_111
*752 FILLER_0_1_113
*753 FILLER_0_1_125
*754 FILLER_0_1_137
*755 FILLER_0_1_149
*756 FILLER_0_1_15
*757 FILLER_0_1_161
*758 FILLER_0_1_167
*759 FILLER_0_1_169
*760 FILLER_0_1_181
*761 FILLER_0_1_193
*762 FILLER_0_1_205
*763 FILLER_0_1_217
*764 FILLER_0_1_223
*765 FILLER_0_1_225
*766 FILLER_0_1_237
*767 FILLER_0_1_249
*768 FILLER_0_1_261
*769 FILLER_0_1_27
*770 FILLER_0_1_273
*771 FILLER_0_1_279
*772 FILLER_0_1_281
*773 FILLER_0_1_293
*774 FILLER_0_1_3
*775 FILLER_0_1_305
*776 FILLER_0_1_317
*777 FILLER_0_1_329
*778 FILLER_0_1_335
*779 FILLER_0_1_337
*780 FILLER_0_1_349
*781 FILLER_0_1_39
*782 FILLER_0_1_51
*783 FILLER_0_1_55
*784 FILLER_0_1_57
*785 FILLER_0_1_69
*786 FILLER_0_1_81
*787 FILLER_0_1_93
*788 FILLER_0_20_109
*789 FILLER_0_20_121
*790 FILLER_0_20_133
*791 FILLER_0_20_139
*792 FILLER_0_20_141
*793 FILLER_0_20_15
*794 FILLER_0_20_153
*795 FILLER_0_20_165
*796 FILLER_0_20_177
*797 FILLER_0_20_189
*798 FILLER_0_20_195
*799 FILLER_0_20_197
*800 FILLER_0_20_209
*801 FILLER_0_20_221
*802 FILLER_0_20_233
*803 FILLER_0_20_245
*804 FILLER_0_20_251
*805 FILLER_0_20_253
*806 FILLER_0_20_265
*807 FILLER_0_20_27
*808 FILLER_0_20_277
*809 FILLER_0_20_289
*810 FILLER_0_20_29
*811 FILLER_0_20_3
*812 FILLER_0_20_301
*813 FILLER_0_20_307
*814 FILLER_0_20_309
*815 FILLER_0_20_321
*816 FILLER_0_20_333
*817 FILLER_0_20_345
*818 FILLER_0_20_41
*819 FILLER_0_20_53
*820 FILLER_0_20_65
*821 FILLER_0_20_77
*822 FILLER_0_20_83
*823 FILLER_0_20_85
*824 FILLER_0_20_97
*825 FILLER_0_21_105
*826 FILLER_0_21_111
*827 FILLER_0_21_113
*828 FILLER_0_21_125
*829 FILLER_0_21_137
*830 FILLER_0_21_149
*831 FILLER_0_21_15
*832 FILLER_0_21_161
*833 FILLER_0_21_167
*834 FILLER_0_21_169
*835 FILLER_0_21_181
*836 FILLER_0_21_193
*837 FILLER_0_21_205
*838 FILLER_0_21_217
*839 FILLER_0_21_223
*840 FILLER_0_21_225
*841 FILLER_0_21_237
*842 FILLER_0_21_249
*843 FILLER_0_21_261
*844 FILLER_0_21_27
*845 FILLER_0_21_273
*846 FILLER_0_21_279
*847 FILLER_0_21_281
*848 FILLER_0_21_293
*849 FILLER_0_21_3
*850 FILLER_0_21_305
*851 FILLER_0_21_317
*852 FILLER_0_21_329
*853 FILLER_0_21_335
*854 FILLER_0_21_337
*855 FILLER_0_21_349
*856 FILLER_0_21_39
*857 FILLER_0_21_51
*858 FILLER_0_21_55
*859 FILLER_0_21_57
*860 FILLER_0_21_69
*861 FILLER_0_21_81
*862 FILLER_0_21_93
*863 FILLER_0_22_109
*864 FILLER_0_22_121
*865 FILLER_0_22_133
*866 FILLER_0_22_139
*867 FILLER_0_22_141
*868 FILLER_0_22_15
*869 FILLER_0_22_153
*870 FILLER_0_22_165
*871 FILLER_0_22_177
*872 FILLER_0_22_189
*873 FILLER_0_22_195
*874 FILLER_0_22_197
*875 FILLER_0_22_209
*876 FILLER_0_22_221
*877 FILLER_0_22_233
*878 FILLER_0_22_241
*879 FILLER_0_22_247
*880 FILLER_0_22_253
*881 FILLER_0_22_265
*882 FILLER_0_22_27
*883 FILLER_0_22_277
*884 FILLER_0_22_289
*885 FILLER_0_22_29
*886 FILLER_0_22_3
*887 FILLER_0_22_301
*888 FILLER_0_22_307
*889 FILLER_0_22_309
*890 FILLER_0_22_321
*891 FILLER_0_22_333
*892 FILLER_0_22_345
*893 FILLER_0_22_41
*894 FILLER_0_22_53
*895 FILLER_0_22_65
*896 FILLER_0_22_77
*897 FILLER_0_22_83
*898 FILLER_0_22_85
*899 FILLER_0_22_97
*900 FILLER_0_23_105
*901 FILLER_0_23_111
*902 FILLER_0_23_113
*903 FILLER_0_23_125
*904 FILLER_0_23_137
*905 FILLER_0_23_149
*906 FILLER_0_23_15
*907 FILLER_0_23_161
*908 FILLER_0_23_167
*909 FILLER_0_23_169
*910 FILLER_0_23_181
*911 FILLER_0_23_193
*912 FILLER_0_23_199
*913 FILLER_0_23_216
*914 FILLER_0_23_225
*915 FILLER_0_23_27
*916 FILLER_0_23_273
*917 FILLER_0_23_279
*918 FILLER_0_23_281
*919 FILLER_0_23_3
*920 FILLER_0_23_313
*921 FILLER_0_23_325
*922 FILLER_0_23_333
*923 FILLER_0_23_337
*924 FILLER_0_23_349
*925 FILLER_0_23_39
*926 FILLER_0_23_51
*927 FILLER_0_23_55
*928 FILLER_0_23_57
*929 FILLER_0_23_69
*930 FILLER_0_23_81
*931 FILLER_0_23_93
*932 FILLER_0_24_109
*933 FILLER_0_24_121
*934 FILLER_0_24_133
*935 FILLER_0_24_139
*936 FILLER_0_24_141
*937 FILLER_0_24_15
*938 FILLER_0_24_165
*939 FILLER_0_24_177
*940 FILLER_0_24_189
*941 FILLER_0_24_195
*942 FILLER_0_24_197
*943 FILLER_0_24_224
*944 FILLER_0_24_230
*945 FILLER_0_24_251
*946 FILLER_0_24_27
*947 FILLER_0_24_29
*948 FILLER_0_24_3
*949 FILLER_0_24_309
*950 FILLER_0_24_321
*951 FILLER_0_24_333
*952 FILLER_0_24_345
*953 FILLER_0_24_41
*954 FILLER_0_24_53
*955 FILLER_0_24_65
*956 FILLER_0_24_77
*957 FILLER_0_24_83
*958 FILLER_0_24_85
*959 FILLER_0_24_97
*960 FILLER_0_25_105
*961 FILLER_0_25_111
*962 FILLER_0_25_113
*963 FILLER_0_25_125
*964 FILLER_0_25_15
*965 FILLER_0_25_167
*966 FILLER_0_25_169
*967 FILLER_0_25_175
*968 FILLER_0_25_179
*969 FILLER_0_25_191
*970 FILLER_0_25_222
*971 FILLER_0_25_27
*972 FILLER_0_25_276
*973 FILLER_0_25_281
*974 FILLER_0_25_3
*975 FILLER_0_25_309
*976 FILLER_0_25_321
*977 FILLER_0_25_333
*978 FILLER_0_25_337
*979 FILLER_0_25_349
*980 FILLER_0_25_39
*981 FILLER_0_25_51
*982 FILLER_0_25_55
*983 FILLER_0_25_57
*984 FILLER_0_25_69
*985 FILLER_0_25_81
*986 FILLER_0_25_93
*987 FILLER_0_26_109
*988 FILLER_0_26_121
*989 FILLER_0_26_133
*990 FILLER_0_26_141
*991 FILLER_0_26_15
*992 FILLER_0_26_191
*993 FILLER_0_26_195
*994 FILLER_0_26_197
*995 FILLER_0_26_230
*996 FILLER_0_26_27
*997 FILLER_0_26_29
*998 FILLER_0_26_290
*999 FILLER_0_26_3
*1000 FILLER_0_26_307
*1001 FILLER_0_26_309
*1002 FILLER_0_26_321
*1003 FILLER_0_26_333
*1004 FILLER_0_26_345
*1005 FILLER_0_26_41
*1006 FILLER_0_26_53
*1007 FILLER_0_26_65
*1008 FILLER_0_26_77
*1009 FILLER_0_26_83
*1010 FILLER_0_26_85
*1011 FILLER_0_26_97
*1012 FILLER_0_27_105
*1013 FILLER_0_27_111
*1014 FILLER_0_27_113
*1015 FILLER_0_27_125
*1016 FILLER_0_27_131
*1017 FILLER_0_27_15
*1018 FILLER_0_27_167
*1019 FILLER_0_27_182
*1020 FILLER_0_27_205
*1021 FILLER_0_27_225
*1022 FILLER_0_27_253
*1023 FILLER_0_27_27
*1024 FILLER_0_27_274
*1025 FILLER_0_27_281
*1026 FILLER_0_27_3
*1027 FILLER_0_27_320
*1028 FILLER_0_27_332
*1029 FILLER_0_27_337
*1030 FILLER_0_27_349
*1031 FILLER_0_27_39
*1032 FILLER_0_27_51
*1033 FILLER_0_27_55
*1034 FILLER_0_27_57
*1035 FILLER_0_27_69
*1036 FILLER_0_27_81
*1037 FILLER_0_27_93
*1038 FILLER_0_28_109
*1039 FILLER_0_28_121
*1040 FILLER_0_28_129
*1041 FILLER_0_28_15
*1042 FILLER_0_28_164
*1043 FILLER_0_28_176
*1044 FILLER_0_28_229
*1045 FILLER_0_28_235
*1046 FILLER_0_28_250
*1047 FILLER_0_28_269
*1048 FILLER_0_28_27
*1049 FILLER_0_28_275
*1050 FILLER_0_28_29
*1051 FILLER_0_28_3
*1052 FILLER_0_28_309
*1053 FILLER_0_28_328
*1054 FILLER_0_28_340
*1055 FILLER_0_28_348
*1056 FILLER_0_28_41
*1057 FILLER_0_28_53
*1058 FILLER_0_28_65
*1059 FILLER_0_28_77
*1060 FILLER_0_28_83
*1061 FILLER_0_28_85
*1062 FILLER_0_28_97
*1063 FILLER_0_29_105
*1064 FILLER_0_29_111
*1065 FILLER_0_29_113
*1066 FILLER_0_29_121
*1067 FILLER_0_29_15
*1068 FILLER_0_29_162
*1069 FILLER_0_29_169
*1070 FILLER_0_29_173
*1071 FILLER_0_29_177
*1072 FILLER_0_29_185
*1073 FILLER_0_29_209
*1074 FILLER_0_29_217
*1075 FILLER_0_29_225
*1076 FILLER_0_29_259
*1077 FILLER_0_29_263
*1078 FILLER_0_29_27
*1079 FILLER_0_29_289
*1080 FILLER_0_29_3
*1081 FILLER_0_29_326
*1082 FILLER_0_29_334
*1083 FILLER_0_29_337
*1084 FILLER_0_29_349
*1085 FILLER_0_29_39
*1086 FILLER_0_29_51
*1087 FILLER_0_29_55
*1088 FILLER_0_29_57
*1089 FILLER_0_29_69
*1090 FILLER_0_29_81
*1091 FILLER_0_29_93
*1092 FILLER_0_2_109
*1093 FILLER_0_2_121
*1094 FILLER_0_2_133
*1095 FILLER_0_2_139
*1096 FILLER_0_2_141
*1097 FILLER_0_2_15
*1098 FILLER_0_2_153
*1099 FILLER_0_2_165
*1100 FILLER_0_2_177
*1101 FILLER_0_2_189
*1102 FILLER_0_2_195
*1103 FILLER_0_2_197
*1104 FILLER_0_2_209
*1105 FILLER_0_2_221
*1106 FILLER_0_2_233
*1107 FILLER_0_2_245
*1108 FILLER_0_2_251
*1109 FILLER_0_2_253
*1110 FILLER_0_2_265
*1111 FILLER_0_2_27
*1112 FILLER_0_2_277
*1113 FILLER_0_2_289
*1114 FILLER_0_2_29
*1115 FILLER_0_2_3
*1116 FILLER_0_2_301
*1117 FILLER_0_2_307
*1118 FILLER_0_2_309
*1119 FILLER_0_2_321
*1120 FILLER_0_2_333
*1121 FILLER_0_2_345
*1122 FILLER_0_2_41
*1123 FILLER_0_2_53
*1124 FILLER_0_2_65
*1125 FILLER_0_2_77
*1126 FILLER_0_2_83
*1127 FILLER_0_2_85
*1128 FILLER_0_2_97
*1129 FILLER_0_30_109
*1130 FILLER_0_30_121
*1131 FILLER_0_30_137
*1132 FILLER_0_30_15
*1133 FILLER_0_30_160
*1134 FILLER_0_30_224
*1135 FILLER_0_30_243
*1136 FILLER_0_30_251
*1137 FILLER_0_30_253
*1138 FILLER_0_30_262
*1139 FILLER_0_30_27
*1140 FILLER_0_30_270
*1141 FILLER_0_30_288
*1142 FILLER_0_30_29
*1143 FILLER_0_30_3
*1144 FILLER_0_30_307
*1145 FILLER_0_30_337
*1146 FILLER_0_30_349
*1147 FILLER_0_30_41
*1148 FILLER_0_30_53
*1149 FILLER_0_30_65
*1150 FILLER_0_30_77
*1151 FILLER_0_30_83
*1152 FILLER_0_30_85
*1153 FILLER_0_30_97
*1154 FILLER_0_31_105
*1155 FILLER_0_31_111
*1156 FILLER_0_31_113
*1157 FILLER_0_31_119
*1158 FILLER_0_31_15
*1159 FILLER_0_31_186
*1160 FILLER_0_31_192
*1161 FILLER_0_31_196
*1162 FILLER_0_31_202
*1163 FILLER_0_31_222
*1164 FILLER_0_31_230
*1165 FILLER_0_31_251
*1166 FILLER_0_31_27
*1167 FILLER_0_31_289
*1168 FILLER_0_31_3
*1169 FILLER_0_31_304
*1170 FILLER_0_31_335
*1171 FILLER_0_31_39
*1172 FILLER_0_31_51
*1173 FILLER_0_31_55
*1174 FILLER_0_31_57
*1175 FILLER_0_31_69
*1176 FILLER_0_31_81
*1177 FILLER_0_31_93
*1178 FILLER_0_32_109
*1179 FILLER_0_32_121
*1180 FILLER_0_32_129
*1181 FILLER_0_32_15
*1182 FILLER_0_32_163
*1183 FILLER_0_32_194
*1184 FILLER_0_32_197
*1185 FILLER_0_32_209
*1186 FILLER_0_32_247
*1187 FILLER_0_32_251
*1188 FILLER_0_32_257
*1189 FILLER_0_32_27
*1190 FILLER_0_32_277
*1191 FILLER_0_32_289
*1192 FILLER_0_32_29
*1193 FILLER_0_32_3
*1194 FILLER_0_32_301
*1195 FILLER_0_32_307
*1196 FILLER_0_32_309
*1197 FILLER_0_32_350
*1198 FILLER_0_32_41
*1199 FILLER_0_32_53
*1200 FILLER_0_32_65
*1201 FILLER_0_32_77
*1202 FILLER_0_32_83
*1203 FILLER_0_32_85
*1204 FILLER_0_32_97
*1205 FILLER_0_33_105
*1206 FILLER_0_33_111
*1207 FILLER_0_33_113
*1208 FILLER_0_33_125
*1209 FILLER_0_33_147
*1210 FILLER_0_33_15
*1211 FILLER_0_33_160
*1212 FILLER_0_33_169
*1213 FILLER_0_33_199
*1214 FILLER_0_33_207
*1215 FILLER_0_33_247
*1216 FILLER_0_33_27
*1217 FILLER_0_33_278
*1218 FILLER_0_33_297
*1219 FILLER_0_33_3
*1220 FILLER_0_33_305
*1221 FILLER_0_33_333
*1222 FILLER_0_33_342
*1223 FILLER_0_33_39
*1224 FILLER_0_33_51
*1225 FILLER_0_33_55
*1226 FILLER_0_33_57
*1227 FILLER_0_33_69
*1228 FILLER_0_33_81
*1229 FILLER_0_33_93
*1230 FILLER_0_34_109
*1231 FILLER_0_34_121
*1232 FILLER_0_34_133
*1233 FILLER_0_34_139
*1234 FILLER_0_34_141
*1235 FILLER_0_34_15
*1236 FILLER_0_34_159
*1237 FILLER_0_34_171
*1238 FILLER_0_34_195
*1239 FILLER_0_34_200
*1240 FILLER_0_34_221
*1241 FILLER_0_34_238
*1242 FILLER_0_34_250
*1243 FILLER_0_34_27
*1244 FILLER_0_34_286
*1245 FILLER_0_34_29
*1246 FILLER_0_34_3
*1247 FILLER_0_34_303
*1248 FILLER_0_34_307
*1249 FILLER_0_34_346
*1250 FILLER_0_34_350
*1251 FILLER_0_34_41
*1252 FILLER_0_34_53
*1253 FILLER_0_34_65
*1254 FILLER_0_34_77
*1255 FILLER_0_34_83
*1256 FILLER_0_34_85
*1257 FILLER_0_34_97
*1258 FILLER_0_35_105
*1259 FILLER_0_35_111
*1260 FILLER_0_35_113
*1261 FILLER_0_35_125
*1262 FILLER_0_35_137
*1263 FILLER_0_35_15
*1264 FILLER_0_35_155
*1265 FILLER_0_35_167
*1266 FILLER_0_35_197
*1267 FILLER_0_35_209
*1268 FILLER_0_35_218
*1269 FILLER_0_35_254
*1270 FILLER_0_35_27
*1271 FILLER_0_35_277
*1272 FILLER_0_35_3
*1273 FILLER_0_35_311
*1274 FILLER_0_35_39
*1275 FILLER_0_35_51
*1276 FILLER_0_35_55
*1277 FILLER_0_35_57
*1278 FILLER_0_35_69
*1279 FILLER_0_35_81
*1280 FILLER_0_35_93
*1281 FILLER_0_36_109
*1282 FILLER_0_36_121
*1283 FILLER_0_36_133
*1284 FILLER_0_36_139
*1285 FILLER_0_36_141
*1286 FILLER_0_36_15
*1287 FILLER_0_36_151
*1288 FILLER_0_36_157
*1289 FILLER_0_36_193
*1290 FILLER_0_36_197
*1291 FILLER_0_36_203
*1292 FILLER_0_36_220
*1293 FILLER_0_36_251
*1294 FILLER_0_36_262
*1295 FILLER_0_36_27
*1296 FILLER_0_36_29
*1297 FILLER_0_36_295
*1298 FILLER_0_36_3
*1299 FILLER_0_36_349
*1300 FILLER_0_36_41
*1301 FILLER_0_36_53
*1302 FILLER_0_36_65
*1303 FILLER_0_36_77
*1304 FILLER_0_36_83
*1305 FILLER_0_36_85
*1306 FILLER_0_36_97
*1307 FILLER_0_37_105
*1308 FILLER_0_37_111
*1309 FILLER_0_37_113
*1310 FILLER_0_37_125
*1311 FILLER_0_37_137
*1312 FILLER_0_37_149
*1313 FILLER_0_37_15
*1314 FILLER_0_37_161
*1315 FILLER_0_37_166
*1316 FILLER_0_37_173
*1317 FILLER_0_37_196
*1318 FILLER_0_37_219
*1319 FILLER_0_37_223
*1320 FILLER_0_37_225
*1321 FILLER_0_37_242
*1322 FILLER_0_37_259
*1323 FILLER_0_37_27
*1324 FILLER_0_37_3
*1325 FILLER_0_37_332
*1326 FILLER_0_37_39
*1327 FILLER_0_37_51
*1328 FILLER_0_37_55
*1329 FILLER_0_37_57
*1330 FILLER_0_37_69
*1331 FILLER_0_37_81
*1332 FILLER_0_37_93
*1333 FILLER_0_38_104
*1334 FILLER_0_38_110
*1335 FILLER_0_38_116
*1336 FILLER_0_38_122
*1337 FILLER_0_38_128
*1338 FILLER_0_38_134
*1339 FILLER_0_38_141
*1340 FILLER_0_38_146
*1341 FILLER_0_38_15
*1342 FILLER_0_38_152
*1343 FILLER_0_38_158
*1344 FILLER_0_38_166
*1345 FILLER_0_38_169
*1346 FILLER_0_38_176
*1347 FILLER_0_38_182
*1348 FILLER_0_38_197
*1349 FILLER_0_38_212
*1350 FILLER_0_38_225
*1351 FILLER_0_38_233
*1352 FILLER_0_38_27
*1353 FILLER_0_38_278
*1354 FILLER_0_38_29
*1355 FILLER_0_38_3
*1356 FILLER_0_38_300
*1357 FILLER_0_38_309
*1358 FILLER_0_38_314
*1359 FILLER_0_38_320
*1360 FILLER_0_38_334
*1361 FILLER_0_38_345
*1362 FILLER_0_38_41
*1363 FILLER_0_38_53
*1364 FILLER_0_38_57
*1365 FILLER_0_38_68
*1366 FILLER_0_38_74
*1367 FILLER_0_38_80
*1368 FILLER_0_38_88
*1369 FILLER_0_38_92
*1370 FILLER_0_38_98
*1371 FILLER_0_3_105
*1372 FILLER_0_3_111
*1373 FILLER_0_3_113
*1374 FILLER_0_3_125
*1375 FILLER_0_3_137
*1376 FILLER_0_3_149
*1377 FILLER_0_3_15
*1378 FILLER_0_3_161
*1379 FILLER_0_3_167
*1380 FILLER_0_3_169
*1381 FILLER_0_3_181
*1382 FILLER_0_3_193
*1383 FILLER_0_3_205
*1384 FILLER_0_3_217
*1385 FILLER_0_3_223
*1386 FILLER_0_3_225
*1387 FILLER_0_3_237
*1388 FILLER_0_3_249
*1389 FILLER_0_3_261
*1390 FILLER_0_3_27
*1391 FILLER_0_3_273
*1392 FILLER_0_3_279
*1393 FILLER_0_3_281
*1394 FILLER_0_3_293
*1395 FILLER_0_3_3
*1396 FILLER_0_3_305
*1397 FILLER_0_3_317
*1398 FILLER_0_3_329
*1399 FILLER_0_3_335
*1400 FILLER_0_3_337
*1401 FILLER_0_3_349
*1402 FILLER_0_3_39
*1403 FILLER_0_3_51
*1404 FILLER_0_3_55
*1405 FILLER_0_3_57
*1406 FILLER_0_3_69
*1407 FILLER_0_3_81
*1408 FILLER_0_3_93
*1409 FILLER_0_4_109
*1410 FILLER_0_4_121
*1411 FILLER_0_4_133
*1412 FILLER_0_4_139
*1413 FILLER_0_4_141
*1414 FILLER_0_4_15
*1415 FILLER_0_4_153
*1416 FILLER_0_4_165
*1417 FILLER_0_4_177
*1418 FILLER_0_4_189
*1419 FILLER_0_4_195
*1420 FILLER_0_4_197
*1421 FILLER_0_4_209
*1422 FILLER_0_4_221
*1423 FILLER_0_4_233
*1424 FILLER_0_4_245
*1425 FILLER_0_4_251
*1426 FILLER_0_4_253
*1427 FILLER_0_4_265
*1428 FILLER_0_4_27
*1429 FILLER_0_4_277
*1430 FILLER_0_4_289
*1431 FILLER_0_4_29
*1432 FILLER_0_4_3
*1433 FILLER_0_4_301
*1434 FILLER_0_4_307
*1435 FILLER_0_4_309
*1436 FILLER_0_4_321
*1437 FILLER_0_4_333
*1438 FILLER_0_4_345
*1439 FILLER_0_4_41
*1440 FILLER_0_4_53
*1441 FILLER_0_4_65
*1442 FILLER_0_4_77
*1443 FILLER_0_4_83
*1444 FILLER_0_4_85
*1445 FILLER_0_4_97
*1446 FILLER_0_5_105
*1447 FILLER_0_5_111
*1448 FILLER_0_5_113
*1449 FILLER_0_5_125
*1450 FILLER_0_5_137
*1451 FILLER_0_5_149
*1452 FILLER_0_5_15
*1453 FILLER_0_5_161
*1454 FILLER_0_5_167
*1455 FILLER_0_5_169
*1456 FILLER_0_5_181
*1457 FILLER_0_5_193
*1458 FILLER_0_5_205
*1459 FILLER_0_5_217
*1460 FILLER_0_5_223
*1461 FILLER_0_5_225
*1462 FILLER_0_5_237
*1463 FILLER_0_5_249
*1464 FILLER_0_5_261
*1465 FILLER_0_5_27
*1466 FILLER_0_5_273
*1467 FILLER_0_5_279
*1468 FILLER_0_5_281
*1469 FILLER_0_5_293
*1470 FILLER_0_5_3
*1471 FILLER_0_5_305
*1472 FILLER_0_5_317
*1473 FILLER_0_5_329
*1474 FILLER_0_5_335
*1475 FILLER_0_5_337
*1476 FILLER_0_5_349
*1477 FILLER_0_5_39
*1478 FILLER_0_5_51
*1479 FILLER_0_5_55
*1480 FILLER_0_5_57
*1481 FILLER_0_5_69
*1482 FILLER_0_5_81
*1483 FILLER_0_5_93
*1484 FILLER_0_6_109
*1485 FILLER_0_6_121
*1486 FILLER_0_6_133
*1487 FILLER_0_6_139
*1488 FILLER_0_6_141
*1489 FILLER_0_6_15
*1490 FILLER_0_6_153
*1491 FILLER_0_6_165
*1492 FILLER_0_6_177
*1493 FILLER_0_6_189
*1494 FILLER_0_6_195
*1495 FILLER_0_6_197
*1496 FILLER_0_6_209
*1497 FILLER_0_6_221
*1498 FILLER_0_6_233
*1499 FILLER_0_6_245
*1500 FILLER_0_6_251
*1501 FILLER_0_6_253
*1502 FILLER_0_6_265
*1503 FILLER_0_6_27
*1504 FILLER_0_6_277
*1505 FILLER_0_6_289
*1506 FILLER_0_6_29
*1507 FILLER_0_6_3
*1508 FILLER_0_6_301
*1509 FILLER_0_6_307
*1510 FILLER_0_6_309
*1511 FILLER_0_6_321
*1512 FILLER_0_6_333
*1513 FILLER_0_6_345
*1514 FILLER_0_6_41
*1515 FILLER_0_6_53
*1516 FILLER_0_6_65
*1517 FILLER_0_6_77
*1518 FILLER_0_6_83
*1519 FILLER_0_6_85
*1520 FILLER_0_6_97
*1521 FILLER_0_7_105
*1522 FILLER_0_7_111
*1523 FILLER_0_7_113
*1524 FILLER_0_7_125
*1525 FILLER_0_7_137
*1526 FILLER_0_7_149
*1527 FILLER_0_7_15
*1528 FILLER_0_7_161
*1529 FILLER_0_7_167
*1530 FILLER_0_7_169
*1531 FILLER_0_7_181
*1532 FILLER_0_7_193
*1533 FILLER_0_7_205
*1534 FILLER_0_7_217
*1535 FILLER_0_7_223
*1536 FILLER_0_7_225
*1537 FILLER_0_7_237
*1538 FILLER_0_7_249
*1539 FILLER_0_7_261
*1540 FILLER_0_7_27
*1541 FILLER_0_7_273
*1542 FILLER_0_7_279
*1543 FILLER_0_7_281
*1544 FILLER_0_7_293
*1545 FILLER_0_7_3
*1546 FILLER_0_7_305
*1547 FILLER_0_7_317
*1548 FILLER_0_7_329
*1549 FILLER_0_7_335
*1550 FILLER_0_7_337
*1551 FILLER_0_7_349
*1552 FILLER_0_7_39
*1553 FILLER_0_7_51
*1554 FILLER_0_7_55
*1555 FILLER_0_7_57
*1556 FILLER_0_7_69
*1557 FILLER_0_7_81
*1558 FILLER_0_7_93
*1559 FILLER_0_8_109
*1560 FILLER_0_8_121
*1561 FILLER_0_8_133
*1562 FILLER_0_8_139
*1563 FILLER_0_8_141
*1564 FILLER_0_8_15
*1565 FILLER_0_8_153