*SPEF "ieee 1481-1999"
*DESIGN "tt_um_wokwi_380410498092232705"
*DATE "11:11:11 Fri 11 11, 1111"
*VENDOR "OpenRCX"
*PROGRAM "Parallel Extraction"
*VERSION "1.0"
*DESIGN_FLOW "NAME_SCOPE LOCAL" "PIN_CAP NONE"
*DIVIDER /
*DELIMITER :
*BUS_DELIMITER []
*T_UNIT 1 NS
*C_UNIT 1 PF
*R_UNIT 1 OHM
*L_UNIT 1 HENRY

*NAME_MAP
*3 clk
*4 ena
*5 rst_n
*6 ui_in[0]
*7 ui_in[1]
*8 ui_in[2]
*9 ui_in[3]
*10 ui_in[4]
*11 ui_in[5]
*12 ui_in[6]
*13 ui_in[7]
*14 uio_in[0]
*15 uio_in[1]
*16 uio_in[2]
*17 uio_in[3]
*18 uio_in[4]
*19 uio_in[5]
*20 uio_in[6]
*21 uio_in[7]
*22 net3
*23 net4
*24 net5
*25 net6
*26 net7
*27 net8
*28 net9
*29 net10
*30 net11
*31 net12
*32 net13
*33 net14
*34 net15
*35 net16
*36 net17
*37 net18
*38 uo_out[0]
*39 uo_out[1]
*40 net19
*41 net20
*42 net21
*43 net22
*44 net23
*45 uo_out[7]
*46 _000_
*47 _001_
*48 _002_
*49 _003_
*50 _004_
*51 _005_
*52 _006_
*53 _007_
*54 _008_
*55 _009_
*56 _010_
*57 _011_
*58 _012_
*59 _013_
*60 _014_
*61 _015_
*62 _016_
*63 _017_
*64 _018_
*65 _019_
*66 _020_
*67 _021_
*68 _022_
*69 _023_
*70 _024_
*71 _025_
*72 _026_
*73 _027_
*74 _028_
*75 _029_
*76 _030_
*77 _031_
*78 _032_
*79 _033_
*80 _034_
*81 _035_
*82 _036_
*83 _037_
*84 _038_
*85 _039_
*86 _040_
*87 _041_
*88 _042_
*89 _043_
*90 _044_
*91 _045_
*92 _046_
*93 _047_
*94 _048_
*95 _049_
*96 _050_
*97 _051_
*98 _052_
*99 _053_
*100 _054_
*101 _055_
*102 _056_
*103 _057_
*104 _058_
*105 _059_
*106 _060_
*107 _061_
*108 _062_
*109 _063_
*110 _064_
*111 _065_
*112 _066_
*113 _067_
*114 _068_
*115 _069_
*116 _070_
*117 _071_
*118 _072_
*119 _073_
*120 _074_
*121 _075_
*122 _076_
*123 _077_
*124 _078_
*125 _079_
*126 _080_
*127 _081_
*128 _082_
*129 _083_
*130 _084_
*131 _085_
*132 _086_
*133 _087_
*134 _088_
*135 _089_
*136 _090_
*137 _091_
*138 _092_
*139 _093_
*140 _094_
*141 _095_
*142 _096_
*143 _097_
*144 _098_
*145 _099_
*146 _100_
*147 _101_
*148 _102_
*149 _103_
*150 _104_
*151 _105_
*152 _106_
*153 _107_
*154 _108_
*155 _109_
*156 _110_
*157 _111_
*158 _112_
*159 _113_
*160 _114_
*161 _115_
*162 _116_
*163 _117_
*164 _118_
*165 _119_
*166 _120_
*167 _121_
*168 _122_
*169 _123_
*170 _124_
*171 _125_
*172 _126_
*173 _127_
*174 _128_
*175 _129_
*176 _130_
*177 _131_
*178 _132_
*179 _133_
*180 _134_
*181 _135_
*182 _136_
*183 _137_
*184 _138_
*185 _139_
*186 _140_
*187 _141_
*188 _142_
*189 _143_
*190 _144_
*191 _145_
*192 _146_
*193 _147_
*194 _148_
*195 _149_
*196 _150_
*197 _151_
*198 _152_
*199 _153_
*200 _154_
*201 _155_
*202 _156_
*203 _157_
*204 _158_
*205 _159_
*206 _160_
*207 _161_
*208 _162_
*209 _163_
*210 _164_
*211 _165_
*212 _166_
*213 _167_
*214 _168_
*215 _169_
*216 _170_
*217 _171_
*218 _172_
*219 _173_
*220 _174_
*221 _175_
*222 _176_
*223 _177_
*224 _178_
*225 _179_
*226 _180_
*227 _181_
*228 _182_
*229 _183_
*230 _184_
*231 _185_
*232 _186_
*233 _187_
*234 _188_
*235 _189_
*236 _190_
*237 _191_
*238 _192_
*239 _193_
*240 _194_
*241 _195_
*242 _196_
*243 _197_
*244 _198_
*245 _199_
*246 _200_
*247 _201_
*248 _202_
*249 _203_
*250 _204_
*251 _205_
*252 _206_
*253 _207_
*254 _208_
*255 _209_
*256 _210_
*257 _211_
*258 _212_
*259 _213_
*260 _214_
*261 _215_
*262 _216_
*263 _217_
*264 _218_
*265 _219_
*266 _220_
*267 clknet_0_clk
*268 clknet_3_0__leaf_clk
*269 clknet_3_1__leaf_clk
*270 clknet_3_2__leaf_clk
*271 clknet_3_3__leaf_clk
*272 clknet_3_4__leaf_clk
*273 clknet_3_5__leaf_clk
*274 clknet_3_6__leaf_clk
*275 clknet_3_7__leaf_clk
*276 flop1\.q
*277 flop10\.q
*278 flop100\.q
*279 flop101\.q
*280 flop102\.q
*281 flop103\.q
*282 flop104\.q
*283 flop105\.q
*284 flop11\.q
*285 flop12\.q
*286 flop13\.q
*287 flop14\.q
*288 flop15\.q
*289 flop16\.q
*290 flop17\.q
*291 flop18\.q
*292 flop19\.q
*293 flop2\.q
*294 flop20\.q
*295 flop21\.q
*296 flop22\.q
*297 flop23\.q
*298 flop24\.q
*299 flop25\.q
*300 flop26\.q
*301 flop27\.q
*302 flop28\.q
*303 flop29\.q
*304 flop3\.q
*305 flop30\.q
*306 flop31\.q
*307 flop32\.q
*308 flop33\.q
*309 flop34\.q
*310 flop35\.q
*311 flop36\.q
*312 flop37\.q
*313 flop38\.q
*314 flop39\.q
*315 flop4\.q
*316 flop40\.q
*317 flop41\.q
*318 flop42\.q
*319 flop43\.q
*320 flop44\.q
*321 flop45\.q
*322 flop46\.q
*323 flop47\.q
*324 flop48\.q
*325 flop49\.q
*326 flop5\.q
*327 flop50\.q
*328 flop51\.q
*329 flop52\.q
*330 flop53\.q
*331 flop54\.q
*332 flop55\.q
*333 flop56\.q
*334 flop57\.q
*335 flop58\.q
*336 flop59\.q
*337 flop6\.q
*338 flop60\.q
*339 flop61\.q
*340 flop62\.q
*341 flop63\.q
*342 flop64\.q
*343 flop65\.q
*344 flop66\.q
*345 flop67\.q
*346 flop68\.q
*347 flop69\.q
*348 flop7\.q
*349 flop70\.q
*350 flop71\.q
*351 flop72\.q
*352 flop73\.q
*353 flop74\.q
*354 flop75\.q
*355 flop76\.q
*356 flop77\.q
*357 flop78\.q
*358 flop79\.q
*359 flop8\.q
*360 flop80\.q
*361 flop81\.q
*362 flop82\.q
*363 flop83\.q
*364 flop84\.q
*365 flop85\.q
*366 flop86\.q
*367 flop87\.q
*368 flop88\.q
*369 flop89\.q
*370 flop9\.q
*371 flop90\.q
*372 flop91\.q
*373 flop92\.q
*374 flop93\.q
*375 flop94\.q
*376 flop95\.q
*377 flop96\.q
*378 flop97\.q
*379 flop98\.q
*380 flop99\.q
*381 mux102\.b
*382 net1
*383 net100
*384 net101
*385 net102
*386 net103
*387 net104
*388 net105
*389 net106
*390 net107
*391 net108
*392 net109
*393 net110
*394 net111
*395 net112
*396 net113
*397 net114
*398 net115
*399 net116
*400 net117
*401 net118
*402 net119
*403 net120
*404 net121
*405 net122
*406 net123
*407 net124
*408 net125
*409 net126
*410 net127
*411 net128
*412 net2
*413 net24
*414 net25
*415 net26
*416 net27
*417 net28
*418 net29
*419 net30
*420 net31
*421 net32
*422 net33
*423 net34
*424 net35
*425 net36
*426 net37
*427 net38
*428 net39
*429 net40
*430 net41
*431 net42
*432 net43
*433 net44
*434 net45
*435 net46
*436 net47
*437 net48
*438 net49
*439 net50
*440 net51
*441 net52
*442 net53
*443 net54
*444 net55
*445 net56
*446 net57
*447 net58
*448 net59
*449 net60
*450 net61
*451 net62
*452 net63
*453 net64
*454 net65
*455 net66
*456 net67
*457 net68
*458 net69
*459 net70
*460 net71
*461 net72
*462 net73
*463 net74
*464 net75
*465 net76
*466 net77
*467 net78
*468 net79
*469 net80
*470 net81
*471 net82
*472 net83
*473 net84
*474 net85
*475 net86
*476 net87
*477 net88
*478 net89
*479 net90
*480 net91
*481 net92
*482 net93
*483 net94
*484 net95
*485 net96
*486 net97
*487 net98
*488 net99
*489 FILLER_0_0_109
*490 FILLER_0_0_113
*491 FILLER_0_0_125
*492 FILLER_0_0_137
*493 FILLER_0_0_141
*494 FILLER_0_0_15
*495 FILLER_0_0_153
*496 FILLER_0_0_165
*497 FILLER_0_0_169
*498 FILLER_0_0_181
*499 FILLER_0_0_193
*500 FILLER_0_0_197
*501 FILLER_0_0_209
*502 FILLER_0_0_221
*503 FILLER_0_0_225
*504 FILLER_0_0_237
*505 FILLER_0_0_249
*506 FILLER_0_0_253
*507 FILLER_0_0_265
*508 FILLER_0_0_27
*509 FILLER_0_0_277
*510 FILLER_0_0_281
*511 FILLER_0_0_29
*512 FILLER_0_0_293
*513 FILLER_0_0_3
*514 FILLER_0_0_305
*515 FILLER_0_0_309
*516 FILLER_0_0_321
*517 FILLER_0_0_333
*518 FILLER_0_0_337
*519 FILLER_0_0_349
*520 FILLER_0_0_41
*521 FILLER_0_0_53
*522 FILLER_0_0_57
*523 FILLER_0_0_69
*524 FILLER_0_0_81
*525 FILLER_0_0_85
*526 FILLER_0_0_97
*527 FILLER_0_10_109
*528 FILLER_0_10_121
*529 FILLER_0_10_133
*530 FILLER_0_10_139
*531 FILLER_0_10_141
*532 FILLER_0_10_15
*533 FILLER_0_10_153
*534 FILLER_0_10_165
*535 FILLER_0_10_177
*536 FILLER_0_10_189
*537 FILLER_0_10_195
*538 FILLER_0_10_197
*539 FILLER_0_10_209
*540 FILLER_0_10_221
*541 FILLER_0_10_233
*542 FILLER_0_10_245
*543 FILLER_0_10_251
*544 FILLER_0_10_253
*545 FILLER_0_10_265
*546 FILLER_0_10_27
*547 FILLER_0_10_277
*548 FILLER_0_10_289
*549 FILLER_0_10_29
*550 FILLER_0_10_3
*551 FILLER_0_10_301
*552 FILLER_0_10_307
*553 FILLER_0_10_309
*554 FILLER_0_10_321
*555 FILLER_0_10_333
*556 FILLER_0_10_345
*557 FILLER_0_10_41
*558 FILLER_0_10_53
*559 FILLER_0_10_65
*560 FILLER_0_10_77
*561 FILLER_0_10_83
*562 FILLER_0_10_85
*563 FILLER_0_10_97
*564 FILLER_0_11_105
*565 FILLER_0_11_111
*566 FILLER_0_11_113
*567 FILLER_0_11_125
*568 FILLER_0_11_137
*569 FILLER_0_11_149
*570 FILLER_0_11_15
*571 FILLER_0_11_161
*572 FILLER_0_11_167
*573 FILLER_0_11_169
*574 FILLER_0_11_181
*575 FILLER_0_11_193
*576 FILLER_0_11_205
*577 FILLER_0_11_217
*578 FILLER_0_11_223
*579 FILLER_0_11_225
*580 FILLER_0_11_237
*581 FILLER_0_11_249
*582 FILLER_0_11_261
*583 FILLER_0_11_27
*584 FILLER_0_11_273
*585 FILLER_0_11_279
*586 FILLER_0_11_281
*587 FILLER_0_11_293
*588 FILLER_0_11_3
*589 FILLER_0_11_305
*590 FILLER_0_11_317
*591 FILLER_0_11_329
*592 FILLER_0_11_335
*593 FILLER_0_11_337
*594 FILLER_0_11_349
*595 FILLER_0_11_39
*596 FILLER_0_11_51
*597 FILLER_0_11_55
*598 FILLER_0_11_57
*599 FILLER_0_11_69
*600 FILLER_0_11_81
*601 FILLER_0_11_93
*602 FILLER_0_12_109
*603 FILLER_0_12_121
*604 FILLER_0_12_133
*605 FILLER_0_12_139
*606 FILLER_0_12_141
*607 FILLER_0_12_15
*608 FILLER_0_12_153
*609 FILLER_0_12_165
*610 FILLER_0_12_177
*611 FILLER_0_12_189
*612 FILLER_0_12_195
*613 FILLER_0_12_197
*614 FILLER_0_12_209
*615 FILLER_0_12_221
*616 FILLER_0_12_233
*617 FILLER_0_12_245
*618 FILLER_0_12_251
*619 FILLER_0_12_253
*620 FILLER_0_12_265
*621 FILLER_0_12_27
*622 FILLER_0_12_277
*623 FILLER_0_12_289
*624 FILLER_0_12_29
*625 FILLER_0_12_3
*626 FILLER_0_12_301
*627 FILLER_0_12_307
*628 FILLER_0_12_309
*629 FILLER_0_12_321
*630 FILLER_0_12_333
*631 FILLER_0_12_345
*632 FILLER_0_12_41
*633 FILLER_0_12_53
*634 FILLER_0_12_65
*635 FILLER_0_12_77
*636 FILLER_0_12_83
*637 FILLER_0_12_85
*638 FILLER_0_12_97
*639 FILLER_0_13_105
*640 FILLER_0_13_111
*641 FILLER_0_13_113
*642 FILLER_0_13_125
*643 FILLER_0_13_137
*644 FILLER_0_13_149
*645 FILLER_0_13_15
*646 FILLER_0_13_161
*647 FILLER_0_13_167
*648 FILLER_0_13_169
*649 FILLER_0_13_181
*650 FILLER_0_13_193
*651 FILLER_0_13_205
*652 FILLER_0_13_217
*653 FILLER_0_13_223
*654 FILLER_0_13_225
*655 FILLER_0_13_237
*656 FILLER_0_13_249
*657 FILLER_0_13_261
*658 FILLER_0_13_27
*659 FILLER_0_13_273
*660 FILLER_0_13_279
*661 FILLER_0_13_281
*662 FILLER_0_13_293
*663 FILLER_0_13_3
*664 FILLER_0_13_305
*665 FILLER_0_13_317
*666 FILLER_0_13_329
*667 FILLER_0_13_335
*668 FILLER_0_13_337
*669 FILLER_0_13_349
*670 FILLER_0_13_39
*671 FILLER_0_13_51
*672 FILLER_0_13_55
*673 FILLER_0_13_57
*674 FILLER_0_13_69
*675 FILLER_0_13_81
*676 FILLER_0_13_93
*677 FILLER_0_14_109
*678 FILLER_0_14_121
*679 FILLER_0_14_133
*680 FILLER_0_14_139
*681 FILLER_0_14_141
*682 FILLER_0_14_15
*683 FILLER_0_14_153
*684 FILLER_0_14_165
*685 FILLER_0_14_177
*686 FILLER_0_14_189
*687 FILLER_0_14_195
*688 FILLER_0_14_197
*689 FILLER_0_14_209
*690 FILLER_0_14_221
*691 FILLER_0_14_233
*692 FILLER_0_14_245
*693 FILLER_0_14_251
*694 FILLER_0_14_253
*695 FILLER_0_14_265
*696 FILLER_0_14_27
*697 FILLER_0_14_277
*698 FILLER_0_14_289
*699 FILLER_0_14_29
*700 FILLER_0_14_3
*701 FILLER_0_14_301
*702 FILLER_0_14_307
*703 FILLER_0_14_309
*704 FILLER_0_14_321
*705 FILLER_0_14_333
*706 FILLER_0_14_345
*707 FILLER_0_14_41
*708 FILLER_0_14_53
*709 FILLER_0_14_65
*710 FILLER_0_14_77
*711 FILLER_0_14_83
*712 FILLER_0_14_85
*713 FILLER_0_14_97
*714 FILLER_0_15_105
*715 FILLER_0_15_111
*716 FILLER_0_15_113
*717 FILLER_0_15_125
*718 FILLER_0_15_137
*719 FILLER_0_15_15
*720 FILLER_0_15_150
*721 FILLER_0_15_158
*722 FILLER_0_15_166
*723 FILLER_0_15_175
*724 FILLER_0_15_187
*725 FILLER_0_15_195
*726 FILLER_0_15_203
*727 FILLER_0_15_215
*728 FILLER_0_15_223
*729 FILLER_0_15_225
*730 FILLER_0_15_237
*731 FILLER_0_15_249
*732 FILLER_0_15_261
*733 FILLER_0_15_27
*734 FILLER_0_15_273
*735 FILLER_0_15_279
*736 FILLER_0_15_281
*737 FILLER_0_15_293
*738 FILLER_0_15_3
*739 FILLER_0_15_305
*740 FILLER_0_15_317
*741 FILLER_0_15_329
*742 FILLER_0_15_335
*743 FILLER_0_15_337
*744 FILLER_0_15_349
*745 FILLER_0_15_39
*746 FILLER_0_15_51
*747 FILLER_0_15_55
*748 FILLER_0_15_57
*749 FILLER_0_15_69
*750 FILLER_0_15_81
*751 FILLER_0_15_93
*752 FILLER_0_16_109
*753 FILLER_0_16_121
*754 FILLER_0_16_133
*755 FILLER_0_16_15
*756 FILLER_0_16_160
*757 FILLER_0_16_192
*758 FILLER_0_16_197
*759 FILLER_0_16_201
*760 FILLER_0_16_215
*761 FILLER_0_16_224
*762 FILLER_0_16_228
*763 FILLER_0_16_234
*764 FILLER_0_16_246
*765 FILLER_0_16_253
*766 FILLER_0_16_265
*767 FILLER_0_16_27
*768 FILLER_0_16_277
*769 FILLER_0_16_289
*770 FILLER_0_16_29
*771 FILLER_0_16_3
*772 FILLER_0_16_301
*773 FILLER_0_16_307
*774 FILLER_0_16_309
*775 FILLER_0_16_321
*776 FILLER_0_16_333
*777 FILLER_0_16_345
*778 FILLER_0_16_41
*779 FILLER_0_16_53
*780 FILLER_0_16_65
*781 FILLER_0_16_77
*782 FILLER_0_16_83
*783 FILLER_0_16_85
*784 FILLER_0_16_97
*785 FILLER_0_17_105
*786 FILLER_0_17_111
*787 FILLER_0_17_113
*788 FILLER_0_17_125
*789 FILLER_0_17_129
*790 FILLER_0_17_15
*791 FILLER_0_17_180
*792 FILLER_0_17_249
*793 FILLER_0_17_261
*794 FILLER_0_17_27
*795 FILLER_0_17_273
*796 FILLER_0_17_279
*797 FILLER_0_17_281
*798 FILLER_0_17_293
*799 FILLER_0_17_3
*800 FILLER_0_17_305
*801 FILLER_0_17_317
*802 FILLER_0_17_329
*803 FILLER_0_17_335
*804 FILLER_0_17_337
*805 FILLER_0_17_349
*806 FILLER_0_17_39
*807 FILLER_0_17_51
*808 FILLER_0_17_55
*809 FILLER_0_17_57
*810 FILLER_0_17_69
*811 FILLER_0_17_81
*812 FILLER_0_17_93
*813 FILLER_0_18_109
*814 FILLER_0_18_121
*815 FILLER_0_18_15
*816 FILLER_0_18_157
*817 FILLER_0_18_194
*818 FILLER_0_18_213
*819 FILLER_0_18_219
*820 FILLER_0_18_244
*821 FILLER_0_18_253
*822 FILLER_0_18_265
*823 FILLER_0_18_27
*824 FILLER_0_18_271
*825 FILLER_0_18_275
*826 FILLER_0_18_287
*827 FILLER_0_18_29
*828 FILLER_0_18_299
*829 FILLER_0_18_3
*830 FILLER_0_18_307
*831 FILLER_0_18_309
*832 FILLER_0_18_321
*833 FILLER_0_18_333
*834 FILLER_0_18_345
*835 FILLER_0_18_41
*836 FILLER_0_18_53
*837 FILLER_0_18_65
*838 FILLER_0_18_77
*839 FILLER_0_18_83
*840 FILLER_0_18_85
*841 FILLER_0_18_97
*842 FILLER_0_19_105
*843 FILLER_0_19_111
*844 FILLER_0_19_113
*845 FILLER_0_19_140
*846 FILLER_0_19_15
*847 FILLER_0_19_169
*848 FILLER_0_19_191
*849 FILLER_0_19_217
*850 FILLER_0_19_223
*851 FILLER_0_19_249
*852 FILLER_0_19_257
*853 FILLER_0_19_27
*854 FILLER_0_19_279
*855 FILLER_0_19_281
*856 FILLER_0_19_291
*857 FILLER_0_19_3
*858 FILLER_0_19_311
*859 FILLER_0_19_323
*860 FILLER_0_19_335
*861 FILLER_0_19_337
*862 FILLER_0_19_349
*863 FILLER_0_19_39
*864 FILLER_0_19_51
*865 FILLER_0_19_55
*866 FILLER_0_19_57
*867 FILLER_0_19_69
*868 FILLER_0_19_81
*869 FILLER_0_19_93
*870 FILLER_0_1_105
*871 FILLER_0_1_111
*872 FILLER_0_1_113
*873 FILLER_0_1_125
*874 FILLER_0_1_137
*875 FILLER_0_1_149
*876 FILLER_0_1_15
*877 FILLER_0_1_161
*878 FILLER_0_1_167
*879 FILLER_0_1_169
*880 FILLER_0_1_181
*881 FILLER_0_1_193
*882 FILLER_0_1_205
*883 FILLER_0_1_217
*884 FILLER_0_1_223
*885 FILLER_0_1_225
*886 FILLER_0_1_237
*887 FILLER_0_1_249
*888 FILLER_0_1_261
*889 FILLER_0_1_27
*890 FILLER_0_1_273
*891 FILLER_0_1_279
*892 FILLER_0_1_281
*893 FILLER_0_1_293
*894 FILLER_0_1_3
*895 FILLER_0_1_305
*896 FILLER_0_1_317
*897 FILLER_0_1_329
*898 FILLER_0_1_335
*899 FILLER_0_1_337
*900 FILLER_0_1_349
*901 FILLER_0_1_39
*902 FILLER_0_1_51
*903 FILLER_0_1_55
*904 FILLER_0_1_57
*905 FILLER_0_1_69
*906 FILLER_0_1_81
*907 FILLER_0_1_93
*908 FILLER_0_20_109
*909 FILLER_0_20_117
*910 FILLER_0_20_139
*911 FILLER_0_20_15
*912 FILLER_0_20_161
*913 FILLER_0_20_185
*914 FILLER_0_20_197
*915 FILLER_0_20_248
*916 FILLER_0_20_27
*917 FILLER_0_20_285
*918 FILLER_0_20_29
*919 FILLER_0_20_3
*920 FILLER_0_20_300
*921 FILLER_0_20_304
*922 FILLER_0_20_325
*923 FILLER_0_20_337
*924 FILLER_0_20_349
*925 FILLER_0_20_41
*926 FILLER_0_20_53
*927 FILLER_0_20_65
*928 FILLER_0_20_77
*929 FILLER_0_20_83
*930 FILLER_0_20_85
*931 FILLER_0_20_97
*932 FILLER_0_21_105
*933 FILLER_0_21_111
*934 FILLER_0_21_113
*935 FILLER_0_21_119
*936 FILLER_0_21_139
*937 FILLER_0_21_15
*938 FILLER_0_21_157
*939 FILLER_0_21_197
*940 FILLER_0_21_205
*941 FILLER_0_21_222
*942 FILLER_0_21_241
*943 FILLER_0_21_249
*944 FILLER_0_21_27
*945 FILLER_0_21_270
*946 FILLER_0_21_279
*947 FILLER_0_21_297
*948 FILLER_0_21_3
*949 FILLER_0_21_301
*950 FILLER_0_21_328
*951 FILLER_0_21_337
*952 FILLER_0_21_349
*953 FILLER_0_21_39
*954 FILLER_0_21_51
*955 FILLER_0_21_55
*956 FILLER_0_21_57
*957 FILLER_0_21_69
*958 FILLER_0_21_81
*959 FILLER_0_21_93
*960 FILLER_0_22_109
*961 FILLER_0_22_117
*962 FILLER_0_22_139
*963 FILLER_0_22_15
*964 FILLER_0_22_156
*965 FILLER_0_22_183
*966 FILLER_0_22_205
*967 FILLER_0_22_241
*968 FILLER_0_22_245
*969 FILLER_0_22_250
*970 FILLER_0_22_27
*971 FILLER_0_22_29
*972 FILLER_0_22_299
*973 FILLER_0_22_3
*974 FILLER_0_22_307
*975 FILLER_0_22_339
*976 FILLER_0_22_41
*977 FILLER_0_22_53
*978 FILLER_0_22_65
*979 FILLER_0_22_77
*980 FILLER_0_22_83
*981 FILLER_0_22_85
*982 FILLER_0_22_97
*983 FILLER_0_23_105
*984 FILLER_0_23_111
*985 FILLER_0_23_113
*986 FILLER_0_23_119
*987 FILLER_0_23_139
*988 FILLER_0_23_15
*989 FILLER_0_23_161
*990 FILLER_0_23_167
*991 FILLER_0_23_177
*992 FILLER_0_23_195
*993 FILLER_0_23_204
*994 FILLER_0_23_233
*995 FILLER_0_23_269
*996 FILLER_0_23_27
*997 FILLER_0_23_276
*998 FILLER_0_23_292
*999 FILLER_0_23_298
*1000 FILLER_0_23_3
*1001 FILLER_0_23_334
*1002 FILLER_0_23_346
*1003 FILLER_0_23_350
*1004 FILLER_0_23_39
*1005 FILLER_0_23_51
*1006 FILLER_0_23_55
*1007 FILLER_0_23_57
*1008 FILLER_0_23_69
*1009 FILLER_0_23_81
*1010 FILLER_0_23_93
*1011 FILLER_0_24_109
*1012 FILLER_0_24_121
*1013 FILLER_0_24_139
*1014 FILLER_0_24_141
*1015 FILLER_0_24_15
*1016 FILLER_0_24_167
*1017 FILLER_0_24_177
*1018 FILLER_0_24_189
*1019 FILLER_0_24_213
*1020 FILLER_0_24_238
*1021 FILLER_0_24_246
*1022 FILLER_0_24_253
*1023 FILLER_0_24_259
*1024 FILLER_0_24_27
*1025 FILLER_0_24_286
*1026 FILLER_0_24_29
*1027 FILLER_0_24_3
*1028 FILLER_0_24_309
*1029 FILLER_0_24_342
*1030 FILLER_0_24_350
*1031 FILLER_0_24_41
*1032 FILLER_0_24_53
*1033 FILLER_0_24_65
*1034 FILLER_0_24_77
*1035 FILLER_0_24_83
*1036 FILLER_0_24_85
*1037 FILLER_0_24_97
*1038 FILLER_0_25_105
*1039 FILLER_0_25_111
*1040 FILLER_0_25_113
*1041 FILLER_0_25_125
*1042 FILLER_0_25_131
*1043 FILLER_0_25_15
*1044 FILLER_0_25_169
*1045 FILLER_0_25_177
*1046 FILLER_0_25_206
*1047 FILLER_0_25_210
*1048 FILLER_0_25_222
*1049 FILLER_0_25_241
*1050 FILLER_0_25_252
*1051 FILLER_0_25_27
*1052 FILLER_0_25_278
*1053 FILLER_0_25_284
*1054 FILLER_0_25_3
*1055 FILLER_0_25_306
*1056 FILLER_0_25_310
*1057 FILLER_0_25_327
*1058 FILLER_0_25_332
*1059 FILLER_0_25_345
*1060 FILLER_0_25_39
*1061 FILLER_0_25_51
*1062 FILLER_0_25_55
*1063 FILLER_0_25_57
*1064 FILLER_0_25_69
*1065 FILLER_0_25_81
*1066 FILLER_0_25_93
*1067 FILLER_0_26_109
*1068 FILLER_0_26_121
*1069 FILLER_0_26_141
*1070 FILLER_0_26_15
*1071 FILLER_0_26_165
*1072 FILLER_0_26_173
*1073 FILLER_0_26_191
*1074 FILLER_0_26_195
*1075 FILLER_0_26_222
*1076 FILLER_0_26_248
*1077 FILLER_0_26_27
*1078 FILLER_0_26_272
*1079 FILLER_0_26_284
*1080 FILLER_0_26_29
*1081 FILLER_0_26_292
*1082 FILLER_0_26_3
*1083 FILLER_0_26_306
*1084 FILLER_0_26_312
*1085 FILLER_0_26_346
*1086 FILLER_0_26_350
*1087 FILLER_0_26_41
*1088 FILLER_0_26_53
*1089 FILLER_0_26_65
*1090 FILLER_0_26_77
*1091 FILLER_0_26_83
*1092 FILLER_0_26_85
*1093 FILLER_0_26_97
*1094 FILLER_0_27_105
*1095 FILLER_0_27_111
*1096 FILLER_0_27_113
*1097 FILLER_0_27_121
*1098 FILLER_0_27_15
*1099 FILLER_0_27_155
*1100 FILLER_0_27_159
*1101 FILLER_0_27_169
*1102 FILLER_0_27_223
*1103 FILLER_0_27_256
*1104 FILLER_0_27_27
*1105 FILLER_0_27_271
*1106 FILLER_0_27_279
*1107 FILLER_0_27_281
*1108 FILLER_0_27_3
*1109 FILLER_0_27_314
*1110 FILLER_0_27_39
*1111 FILLER_0_27_51
*1112 FILLER_0_27_55
*1113 FILLER_0_27_57
*1114 FILLER_0_27_69
*1115 FILLER_0_27_81
*1116 FILLER_0_27_93
*1117 FILLER_0_28_109
*1118 FILLER_0_28_141
*1119 FILLER_0_28_145
*1120 FILLER_0_28_15
*1121 FILLER_0_28_170
*1122 FILLER_0_28_175
*1123 FILLER_0_28_189
*1124 FILLER_0_28_193
*1125 FILLER_0_28_197
*1126 FILLER_0_28_217
*1127 FILLER_0_28_224
*1128 FILLER_0_28_264
*1129 FILLER_0_28_27
*1130 FILLER_0_28_29
*1131 FILLER_0_28_298
*1132 FILLER_0_28_3
*1133 FILLER_0_28_306
*1134 FILLER_0_28_314
*1135 FILLER_0_28_349
*1136 FILLER_0_28_41
*1137 FILLER_0_28_53
*1138 FILLER_0_28_65
*1139 FILLER_0_28_77
*1140 FILLER_0_28_83
*1141 FILLER_0_28_85
*1142 FILLER_0_28_97
*1143 FILLER_0_29_105
*1144 FILLER_0_29_111
*1145 FILLER_0_29_113
*1146 FILLER_0_29_125
*1147 FILLER_0_29_15
*1148 FILLER_0_29_162
*1149 FILLER_0_29_166
*1150 FILLER_0_29_169
*1151 FILLER_0_29_191
*1152 FILLER_0_29_200
*1153 FILLER_0_29_215
*1154 FILLER_0_29_230
*1155 FILLER_0_29_27
*1156 FILLER_0_29_270
*1157 FILLER_0_29_278
*1158 FILLER_0_29_281
*1159 FILLER_0_29_3
*1160 FILLER_0_29_319
*1161 FILLER_0_29_337
*1162 FILLER_0_29_344
*1163 FILLER_0_29_350
*1164 FILLER_0_29_39
*1165 FILLER_0_29_51
*1166 FILLER_0_29_55
*1167 FILLER_0_29_57
*1168 FILLER_0_29_69
*1169 FILLER_0_29_81
*1170 FILLER_0_29_93
*1171 FILLER_0_2_109
*1172 FILLER_0_2_121
*1173 FILLER_0_2_133
*1174 FILLER_0_2_139
*1175 FILLER_0_2_141
*1176 FILLER_0_2_15
*1177 FILLER_0_2_153
*1178 FILLER_0_2_165
*1179 FILLER_0_2_177
*1180 FILLER_0_2_189
*1181 FILLER_0_2_195
*1182 FILLER_0_2_197
*1183 FILLER_0_2_209
*1184 FILLER_0_2_221
*1185 FILLER_0_2_233
*1186 FILLER_0_2_245
*1187 FILLER_0_2_251
*1188 FILLER_0_2_253
*1189 FILLER_0_2_265
*1190 FILLER_0_2_27
*1191 FILLER_0_2_277
*1192 FILLER_0_2_289
*1193 FILLER_0_2_29
*1194 FILLER_0_2_3
*1195 FILLER_0_2_301
*1196 FILLER_0_2_307
*1197 FILLER_0_2_309
*1198 FILLER_0_2_321
*1199 FILLER_0_2_333
*1200 FILLER_0_2_345
*1201 FILLER_0_2_41
*1202 FILLER_0_2_53
*1203 FILLER_0_2_65
*1204 FILLER_0_2_77
*1205 FILLER_0_2_83
*1206 FILLER_0_2_85
*1207 FILLER_0_2_97
*1208 FILLER_0_30_109
*1209 FILLER_0_30_121
*1210 FILLER_0_30_15
*1211 FILLER_0_30_155
*1212 FILLER_0_30_159
*1213 FILLER_0_30_184
*1214 FILLER_0_30_205
*1215 FILLER_0_30_228
*1216 FILLER_0_30_27
*1217 FILLER_0_30_274
*1218 FILLER_0_30_29
*1219 FILLER_0_30_3
*1220 FILLER_0_30_307
*1221 FILLER_0_30_345
*1222 FILLER_0_30_41
*1223 FILLER_0_30_53
*1224 FILLER_0_30_65
*1225 FILLER_0_30_77
*1226 FILLER_0_30_83
*1227 FILLER_0_30_85
*1228 FILLER_0_30_97
*1229 FILLER_0_31_105
*1230 FILLER_0_31_111
*1231 FILLER_0_31_113
*1232 FILLER_0_31_125
*1233 FILLER_0_31_137
*1234 FILLER_0_31_15
*1235 FILLER_0_31_209
*1236 FILLER_0_31_238
*1237 FILLER_0_31_27
*1238 FILLER_0_31_270
*1239 FILLER_0_31_276
*1240 FILLER_0_31_3
*1241 FILLER_0_31_321
*1242 FILLER_0_31_39
*1243 FILLER_0_31_51
*1244 FILLER_0_31_55
*1245 FILLER_0_31_57
*1246 FILLER_0_31_69
*1247 FILLER_0_31_81
*1248 FILLER_0_31_93
*1249 FILLER_0_32_109
*1250 FILLER_0_32_121
*1251 FILLER_0_32_133
*1252 FILLER_0_32_139
*1253 FILLER_0_32_141
*1254 FILLER_0_32_15
*1255 FILLER_0_32_153
*1256 FILLER_0_32_170
*1257 FILLER_0_32_193
*1258 FILLER_0_32_197
*1259 FILLER_0_32_248
*1260 FILLER_0_32_257
*1261 FILLER_0_32_269
*1262 FILLER_0_32_27
*1263 FILLER_0_32_277
*1264 FILLER_0_32_29
*1265 FILLER_0_32_3
*1266 FILLER_0_32_306
*1267 FILLER_0_32_320
*1268 FILLER_0_32_41
*1269 FILLER_0_32_53
*1270 FILLER_0_32_65
*1271 FILLER_0_32_77
*1272 FILLER_0_32_83
*1273 FILLER_0_32_85
*1274 FILLER_0_32_97
*1275 FILLER_0_33_105
*1276 FILLER_0_33_111
*1277 FILLER_0_33_113
*1278 FILLER_0_33_125
*1279 FILLER_0_33_133
*1280 FILLER_0_33_15
*1281 FILLER_0_33_158
*1282 FILLER_0_33_169
*1283 FILLER_0_33_178
*1284 FILLER_0_33_189
*1285 FILLER_0_33_201
*1286 FILLER_0_33_213
*1287 FILLER_0_33_220
*1288 FILLER_0_33_228
*1289 FILLER_0_33_258
*1290 FILLER_0_33_27
*1291 FILLER_0_33_270
*1292 FILLER_0_33_3
*1293 FILLER_0_33_319
*1294 FILLER_0_33_337
*1295 FILLER_0_33_349
*1296 FILLER_0_33_39
*1297 FILLER_0_33_51
*1298 FILLER_0_33_55
*1299 FILLER_0_33_57
*1300 FILLER_0_33_69
*1301 FILLER_0_33_81
*1302 FILLER_0_33_93
*1303 FILLER_0_34_109
*1304 FILLER_0_34_121
*1305 FILLER_0_34_133
*1306 FILLER_0_34_139
*1307 FILLER_0_34_141
*1308 FILLER_0_34_149
*1309 FILLER_0_34_15
*1310 FILLER_0_34_193
*1311 FILLER_0_34_197
*1312 FILLER_0_34_209
*1313 FILLER_0_34_217
*1314 FILLER_0_34_237
*1315 FILLER_0_34_253
*1316 FILLER_0_34_27
*1317 FILLER_0_34_286
*1318 FILLER_0_34_29
*1319 FILLER_0_34_3
*1320 FILLER_0_34_315
*1321 FILLER_0_34_323
*1322 FILLER_0_34_349
*1323 FILLER_0_34_41
*1324 FILLER_0_34_53
*1325 FILLER_0_34_65
*1326 FILLER_0_34_77
*1327 FILLER_0_34_83
*1328 FILLER_0_34_85
*1329 FILLER_0_34_97
*1330 FILLER_0_35_105
*1331 FILLER_0_35_111
*1332 FILLER_0_35_113
*1333 FILLER_0_35_125
*1334 FILLER_0_35_137
*1335 FILLER_0_35_149
*1336 FILLER_0_35_15
*1337 FILLER_0_35_153
*1338 FILLER_0_35_157
*1339 FILLER_0_35_165
*1340 FILLER_0_35_169
*1341 FILLER_0_35_194
*1342 FILLER_0_35_206
*1343 FILLER_0_35_214
*1344 FILLER_0_35_241
*1345 FILLER_0_35_258
*1346 FILLER_0_35_27
*1347 FILLER_0_35_279
*1348 FILLER_0_35_290
*1349 FILLER_0_35_298
*1350 FILLER_0_35_3
*1351 FILLER_0_35_334
*1352 FILLER_0_35_346
*1353 FILLER_0_35_350
*1354 FILLER_0_35_39
*1355 FILLER_0_35_51
*1356 FILLER_0_35_55
*1357 FILLER_0_35_57
*1358 FILLER_0_35_69
*1359 FILLER_0_35_81
*1360 FILLER_0_35_93
*1361 FILLER_0_36_109
*1362 FILLER_0_36_121
*1363 FILLER_0_36_133
*1364 FILLER_0_36_139
*1365 FILLER_0_36_141
*1366 FILLER_0_36_15
*1367 FILLER_0_36_153
*1368 FILLER_0_36_194
*1369 FILLER_0_36_205
*1370 FILLER_0_36_260
*1371 FILLER_0_36_27
*1372 FILLER_0_36_277
*1373 FILLER_0_36_29
*1374 FILLER_0_36_292
*1375 FILLER_0_36_298
*1376 FILLER_0_36_3
*1377 FILLER_0_36_349
*1378 FILLER_0_36_41
*1379 FILLER_0_36_53
*1380 FILLER_0_36_65
*1381 FILLER_0_36_77
*1382 FILLER_0_36_83
*1383 FILLER_0_36_85
*1384 FILLER_0_36_97
*1385 FILLER_0_37_105
*1386 FILLER_0_37_111
*1387 FILLER_0_37_113
*1388 FILLER_0_37_125
*1389 FILLER_0_37_137
*1390 FILLER_0_37_145
*1391 FILLER_0_37_15
*1392 FILLER_0_37_153
*1393 FILLER_0_37_165
*1394 FILLER_0_37_172
*1395 FILLER_0_37_189
*1396 FILLER_0_37_204
*1397 FILLER_0_37_212
*1398 FILLER_0_37_241
*1399 FILLER_0_37_248
*1400 FILLER_0_37_260
*1401 FILLER_0_37_27
*1402 FILLER_0_37_297
*1403 FILLER_0_37_3
*1404 FILLER_0_37_321
*1405 FILLER_0_37_332
*1406 FILLER_0_37_337
*1407 FILLER_0_37_349
*1408 FILLER_0_37_39
*1409 FILLER_0_37_51
*1410 FILLER_0_37_55
*1411 FILLER_0_37_57
*1412 FILLER_0_37_69
*1413 FILLER_0_37_81
*1414 FILLER_0_37_93
*1415 FILLER_0_38_104
*1416 FILLER_0_38_110
*1417 FILLER_0_38_116
*1418 FILLER_0_38_122
*1419 FILLER_0_38_128
*1420 FILLER_0_38_134
*1421 FILLER_0_38_141
*1422 FILLER_0_38_146
*1423 FILLER_0_38_15
*1424 FILLER_0_38_152
*1425 FILLER_0_38_158
*1426 FILLER_0_38_164
*1427 FILLER_0_38_169
*1428 FILLER_0_38_207
*1429 FILLER_0_38_219
*1430 FILLER_0_38_223
*1431 FILLER_0_38_236
*1432 FILLER_0_38_248
*1433 FILLER_0_38_253
*1434 FILLER_0_38_27
*1435 FILLER_0_38_278
*1436 FILLER_0_38_29
*1437 FILLER_0_38_298
*1438 FILLER_0_38_3
*1439 FILLER_0_38_306
*1440 FILLER_0_38_320
*1441 FILLER_0_38_327
*1442 FILLER_0_38_335
*1443 FILLER_0_38_337
*1444 FILLER_0_38_349
*1445 FILLER_0_38_41
*1446 FILLER_0_38_53
*1447 FILLER_0_38_57
*1448 FILLER_0_38_68
*1449 FILLER_0_38_74
*1450 FILLER_0_38_80
*1451 FILLER_0_38_88
*1452 FILLER_0_38_92
*1453 FILLER_0_38_98
*1454 FILLER_0_3_105
*1455 FILLER_0_3_111
*1456 FILLER_0_3_113
*1457 FILLER_0_3_125
*1458 FILLER_0_3_137
*1459 FILLER_0_3_149
*1460 FILLER_0_3_15
*1461 FILLER_0_3_161
*1462 FILLER_0_3_167
*1463 FILLER_0_3_169
*1464 FILLER_0_3_181
*1465 FILLER_0_3_193
*1466 FILLER_0_3_205
*1467 FILLER_0_3_217
*1468 FILLER_0_3_223
*1469 FILLER_0_3_225
*1470 FILLER_0_3_237
*1471 FILLER_0_3_249
*1472 FILLER_0_3_261
*1473 FILLER_0_3_27
*1474 FILLER_0_3_273
*1475 FILLER_0_3_279
*1476 FILLER_0_3_281
*1477 FILLER_0_3_293
*1478 FILLER_0_3_3
*1479 FILLER_0_3_305
*1480 FILLER_0_3_317
*1481 FILLER_0_3_329
*1482 FILLER_0_3_335
*1483 FILLER_0_3_337
*1484 FILLER_0_3_349
*1485 FILLER_0_3_39
*1486 FILLER_0_3_51
*1487 FILLER_0_3_55
*1488 FILLER_0_3_57
*1489 FILLER_0_3_69
*1490 FILLER_0_3_81
*1491 FILLER_0_3_93
*1492 FILLER_0_4_109
*1493 FILLER_0_4_121
*1494 FILLER_0_4_133
*1495 FILLER_0_4_139
*1496 FILLER_0_4_141
*1497 FILLER_0_4_15
*1498 FILLER_0_4_153
*1499 FILLER_0_4_165
*1500 FILLER_0_4_177
*1501 FILLER_0_4_189
*1502 FILLER_0_4_195
*1503 FILLER_0_4_197
*1504 FILLER_0_4_209
*1505 FILLER_0_4_221
*1506 FILLER_0_4_233
*1507 FILLER_0_4_245
*1508 FILLER_0_4_251
*1509 FILLER_0_4_253
*1510 FILLER_0_4_265
*1511 FILLER_0_4_27
*1512 FILLER_0_4_277
*1513 FILLER_0_4_289
*1514 FILLER_0_4_29
*1515 FILLER_0_4_3
*1516 FILLER_0_4_301
*1517 FILLER_0_4_307
*1518 FILLER_0_4_309
*1519 FILLER_0_4_321
*1520 FILLER_0_4_333
*1521 FILLER_0_4_345
*1522 FILLER_0_4_41
*1523 FILLER_0_4_53
*1524 FILLER_0_4_65
*1525 FILLER_0_4_77
*1526 FILLER_0_4_83
*1527 FILLER_0_4_85
*1528 FILLER_0_4_97
*1529 FILLER_0_5_105
*1530 FILLER_0_5_111
*1531 FILLER_0_5_113
*1532 FILLER_0_5_125
*1533 FILLER_0_5_137
*1534 FILLER_0_5_149
*1535 FILLER_0_5_15
*1536 FILLER_0_5_161
*1537 FILLER_0_5_167
*1538 FILLER_0_5_169
*1539 FILLER_0_5_181
*1540 FILLER_0_5_193
*1541 FILLER_0_5_205
*1542 FILLER_0_5_217
*1543 FILLER_0_5_223
*1544 FILLER_0_5_225
*1545 FILLER_0_5_237
*1546 FILLER_0_5_249
*1547 FILLER_0_5_261
*1548 FILLER_0_5_27
*1549 FILLER_0_5_273
*1550 FILLER_0_5_279
*1551 FILLER_0_5_281
*1552 FILLER_0_5_293
*1553 FILLER_0_5_3
*1554 FILLER_0_5_305
*1555 FILLER_0_5_317
*1556 FILLER_0_5_329
*1557 FILLER_0_5_335
*1558 FILLER_0_5_337
*1559 FILLER_0_5_349
*1560 FILLER_0_5_39
*1561 FILLER_0_5_51
*1562 FILLER_0_5_55
*1563 FILLER_0_5_57
*1564 FILLER_0_5_69
*1565 FILLER_0_5_81
*1566 FILLER_0_5_93
*1567 FILLER_0_6_109
*1568 FILLER_0_6_121
*1569 FILLER_0_6_133
*1570 FILLER_0_6_139
*1571 FILLER_0_6_141
*1572 FILLER_0_6_15
*1573 FILLER_0_6_153
*1574 FILLER_0_6_165
*1575 FILLER_0_6_177
*1576 FILLER_0_6_189
*1577 FILLER_0_6_195
*1578 FILLER_0_6_197
*1579 FILLER_0_6_209
*1580 FILLER_0_6_221
*1581 FILLER_0_6_233
*1582 FILLER_0_6_245
*1583 FILLER_0_6_251
*1584 FILLER_0_6_253
*1585 FILLER_0_6_265
*1586 FILLER_0_6_27
*1587 FILLER_0_6_277
*1588 FILLER_0_6_289
*1589 FILLER_0_6_29
*1590 FILLER_0_6_3
*1591 FILLER_0_6_301
*1592 FILLER_0_6_307
*1593 FILLER_0_6_309
*1594 FILLER_0_6_321
*1595 FILLER_0_6_333
*1596 FILLER_0_6_345
*1597 FILLER_0_6_41
*1598 FILLER_0_6_53
*1599 FILLER_0_6_65
*1600 FILLER_0_6_77
*1601 FILLER_0_6_83
*1602 FILLER_0_6_85
*1603 FILLER_0_6_97
*1604 FILLER_0_7_105
*1605 FILLER_0_7_111
*1606 FILLER_0_7_113
*1607 FILLER_0_7_125
*1608 FILLER_0_7_137
*1609 FILLER_0_7_149
*1610 FILLER_0_7_15
*1611 FILLER_0_7_161
*1612 FILLER_0_7_167
*1613 FILLER_0_7_169
*1614 FILLER_0_7_181
*1615 FILLER_0_7_193
*1616 FILLER_0_7_205
*1617 FILLER_0_7_217
*1618 FILLER_0_7_223
*1619 FILLER_0_7_225
*1620 FILLER_0_7_237
*1621 FILLER_0_7_249
*1622 FILLER_0_7_261
*1623 FILLER_0_7_27
*1624 FILLER_0_7_273
*1625 FILLER_0_7_279