*SPEF "ieee 1481-1999"
*DESIGN "tt_um_wokwi_380409568391147521"
*DATE "11:11:11 Fri 11 11, 1111"
*VENDOR "OpenRCX"
*PROGRAM "Parallel Extraction"
*VERSION "1.0"
*DESIGN_FLOW "NAME_SCOPE LOCAL" "PIN_CAP NONE"
*DIVIDER /
*DELIMITER :
*BUS_DELIMITER []
*T_UNIT 1 NS
*C_UNIT 1 PF
*R_UNIT 1 OHM
*L_UNIT 1 HENRY

*NAME_MAP
*3 clk
*4 ena
*5 rst_n
*6 ui_in[0]
*7 ui_in[1]
*8 ui_in[2]
*9 ui_in[3]
*10 ui_in[4]
*11 ui_in[5]
*12 ui_in[6]
*13 ui_in[7]
*14 uio_in[0]
*15 uio_in[1]
*16 uio_in[2]
*17 uio_in[3]
*18 uio_in[4]
*19 uio_in[5]
*20 uio_in[6]
*21 uio_in[7]
*22 net9
*23 net10
*24 net11
*25 net12
*26 net13
*27 net14
*28 net15
*29 net16
*30 net17
*31 net18
*32 net19
*33 net20
*34 net21
*35 net22
*36 net23
*37 net24
*38 uo_out[0]
*39 net25
*40 net26
*41 net27
*42 net28
*43 net29
*44 uo_out[6]
*45 net30
*46 _00_
*47 _01_
*48 _02_
*49 _03_
*50 _04_
*51 and5\.out
*52 and6\.out
*53 net1
*54 net2
*55 net3
*56 net4
*57 net5
*58 net6
*59 net7
*60 net8
*61 FILLER_0_0_109
*62 FILLER_0_0_113
*63 FILLER_0_0_125
*64 FILLER_0_0_137
*65 FILLER_0_0_141
*66 FILLER_0_0_15
*67 FILLER_0_0_153
*68 FILLER_0_0_165
*69 FILLER_0_0_169
*70 FILLER_0_0_181
*71 FILLER_0_0_193
*72 FILLER_0_0_197
*73 FILLER_0_0_209
*74 FILLER_0_0_221
*75 FILLER_0_0_225
*76 FILLER_0_0_237
*77 FILLER_0_0_249
*78 FILLER_0_0_253
*79 FILLER_0_0_265
*80 FILLER_0_0_27
*81 FILLER_0_0_277
*82 FILLER_0_0_281
*83 FILLER_0_0_29
*84 FILLER_0_0_293
*85 FILLER_0_0_3
*86 FILLER_0_0_305
*87 FILLER_0_0_309
*88 FILLER_0_0_321
*89 FILLER_0_0_333
*90 FILLER_0_0_337
*91 FILLER_0_0_349
*92 FILLER_0_0_41
*93 FILLER_0_0_53
*94 FILLER_0_0_57
*95 FILLER_0_0_69
*96 FILLER_0_0_81
*97 FILLER_0_0_85
*98 FILLER_0_0_97
*99 FILLER_0_10_109
*100 FILLER_0_10_121
*101 FILLER_0_10_133
*102 FILLER_0_10_139
*103 FILLER_0_10_141
*104 FILLER_0_10_15
*105 FILLER_0_10_153
*106 FILLER_0_10_165
*107 FILLER_0_10_177
*108 FILLER_0_10_189
*109 FILLER_0_10_195
*110 FILLER_0_10_197
*111 FILLER_0_10_209
*112 FILLER_0_10_221
*113 FILLER_0_10_233
*114 FILLER_0_10_245
*115 FILLER_0_10_251
*116 FILLER_0_10_253
*117 FILLER_0_10_265
*118 FILLER_0_10_27
*119 FILLER_0_10_277
*120 FILLER_0_10_289
*121 FILLER_0_10_29
*122 FILLER_0_10_3
*123 FILLER_0_10_301
*124 FILLER_0_10_307
*125 FILLER_0_10_309
*126 FILLER_0_10_321
*127 FILLER_0_10_333
*128 FILLER_0_10_345
*129 FILLER_0_10_41
*130 FILLER_0_10_53
*131 FILLER_0_10_65
*132 FILLER_0_10_77
*133 FILLER_0_10_83
*134 FILLER_0_10_85
*135 FILLER_0_10_97
*136 FILLER_0_11_105
*137 FILLER_0_11_111
*138 FILLER_0_11_113
*139 FILLER_0_11_125
*140 FILLER_0_11_137
*141 FILLER_0_11_149
*142 FILLER_0_11_15
*143 FILLER_0_11_161
*144 FILLER_0_11_167
*145 FILLER_0_11_169
*146 FILLER_0_11_181
*147 FILLER_0_11_193
*148 FILLER_0_11_205
*149 FILLER_0_11_217
*150 FILLER_0_11_223
*151 FILLER_0_11_225
*152 FILLER_0_11_237
*153 FILLER_0_11_249
*154 FILLER_0_11_261
*155 FILLER_0_11_27
*156 FILLER_0_11_273
*157 FILLER_0_11_279
*158 FILLER_0_11_281
*159 FILLER_0_11_293
*160 FILLER_0_11_3
*161 FILLER_0_11_305
*162 FILLER_0_11_317
*163 FILLER_0_11_329
*164 FILLER_0_11_335
*165 FILLER_0_11_337
*166 FILLER_0_11_349
*167 FILLER_0_11_39
*168 FILLER_0_11_51
*169 FILLER_0_11_55
*170 FILLER_0_11_57
*171 FILLER_0_11_69
*172 FILLER_0_11_81
*173 FILLER_0_11_93
*174 FILLER_0_12_109
*175 FILLER_0_12_121
*176 FILLER_0_12_133
*177 FILLER_0_12_139
*178 FILLER_0_12_141
*179 FILLER_0_12_15
*180 FILLER_0_12_153
*181 FILLER_0_12_165
*182 FILLER_0_12_177
*183 FILLER_0_12_189
*184 FILLER_0_12_195
*185 FILLER_0_12_197
*186 FILLER_0_12_209
*187 FILLER_0_12_221
*188 FILLER_0_12_233
*189 FILLER_0_12_245
*190 FILLER_0_12_251
*191 FILLER_0_12_253
*192 FILLER_0_12_265
*193 FILLER_0_12_27
*194 FILLER_0_12_277
*195 FILLER_0_12_289
*196 FILLER_0_12_29
*197 FILLER_0_12_3
*198 FILLER_0_12_301
*199 FILLER_0_12_307
*200 FILLER_0_12_309
*201 FILLER_0_12_321
*202 FILLER_0_12_333
*203 FILLER_0_12_345
*204 FILLER_0_12_41
*205 FILLER_0_12_53
*206 FILLER_0_12_65
*207 FILLER_0_12_77
*208 FILLER_0_12_83
*209 FILLER_0_12_85
*210 FILLER_0_12_97
*211 FILLER_0_13_105
*212 FILLER_0_13_111
*213 FILLER_0_13_113
*214 FILLER_0_13_125
*215 FILLER_0_13_137
*216 FILLER_0_13_149
*217 FILLER_0_13_15
*218 FILLER_0_13_161
*219 FILLER_0_13_167
*220 FILLER_0_13_169
*221 FILLER_0_13_181
*222 FILLER_0_13_193
*223 FILLER_0_13_205
*224 FILLER_0_13_217
*225 FILLER_0_13_223
*226 FILLER_0_13_225
*227 FILLER_0_13_237
*228 FILLER_0_13_249
*229 FILLER_0_13_261
*230 FILLER_0_13_27
*231 FILLER_0_13_273
*232 FILLER_0_13_279
*233 FILLER_0_13_281
*234 FILLER_0_13_293
*235 FILLER_0_13_3
*236 FILLER_0_13_305
*237 FILLER_0_13_317
*238 FILLER_0_13_329
*239 FILLER_0_13_335
*240 FILLER_0_13_337
*241 FILLER_0_13_349
*242 FILLER_0_13_39
*243 FILLER_0_13_51
*244 FILLER_0_13_55
*245 FILLER_0_13_57
*246 FILLER_0_13_69
*247 FILLER_0_13_81
*248 FILLER_0_13_93
*249 FILLER_0_14_109
*250 FILLER_0_14_121
*251 FILLER_0_14_133
*252 FILLER_0_14_139
*253 FILLER_0_14_141
*254 FILLER_0_14_15
*255 FILLER_0_14_153
*256 FILLER_0_14_165
*257 FILLER_0_14_177
*258 FILLER_0_14_189
*259 FILLER_0_14_195
*260 FILLER_0_14_197
*261 FILLER_0_14_209
*262 FILLER_0_14_221
*263 FILLER_0_14_233
*264 FILLER_0_14_245
*265 FILLER_0_14_251
*266 FILLER_0_14_253
*267 FILLER_0_14_265
*268 FILLER_0_14_27
*269 FILLER_0_14_277
*270 FILLER_0_14_289
*271 FILLER_0_14_29
*272 FILLER_0_14_3
*273 FILLER_0_14_301
*274 FILLER_0_14_307
*275 FILLER_0_14_309
*276 FILLER_0_14_321
*277 FILLER_0_14_333
*278 FILLER_0_14_345
*279 FILLER_0_14_41
*280 FILLER_0_14_53
*281 FILLER_0_14_65
*282 FILLER_0_14_77
*283 FILLER_0_14_83
*284 FILLER_0_14_85
*285 FILLER_0_14_97
*286 FILLER_0_15_105
*287 FILLER_0_15_111
*288 FILLER_0_15_113
*289 FILLER_0_15_125
*290 FILLER_0_15_137
*291 FILLER_0_15_149
*292 FILLER_0_15_15
*293 FILLER_0_15_161
*294 FILLER_0_15_167
*295 FILLER_0_15_169
*296 FILLER_0_15_181
*297 FILLER_0_15_193
*298 FILLER_0_15_205
*299 FILLER_0_15_217
*300 FILLER_0_15_223
*301 FILLER_0_15_225
*302 FILLER_0_15_237
*303 FILLER_0_15_249
*304 FILLER_0_15_261
*305 FILLER_0_15_27
*306 FILLER_0_15_273
*307 FILLER_0_15_279
*308 FILLER_0_15_281
*309 FILLER_0_15_293
*310 FILLER_0_15_3
*311 FILLER_0_15_305
*312 FILLER_0_15_317
*313 FILLER_0_15_329
*314 FILLER_0_15_335
*315 FILLER_0_15_337
*316 FILLER_0_15_349
*317 FILLER_0_15_39
*318 FILLER_0_15_51
*319 FILLER_0_15_55
*320 FILLER_0_15_57
*321 FILLER_0_15_69
*322 FILLER_0_15_81
*323 FILLER_0_15_93
*324 FILLER_0_16_109
*325 FILLER_0_16_121
*326 FILLER_0_16_133
*327 FILLER_0_16_139
*328 FILLER_0_16_141
*329 FILLER_0_16_15
*330 FILLER_0_16_153
*331 FILLER_0_16_165
*332 FILLER_0_16_177
*333 FILLER_0_16_189
*334 FILLER_0_16_195
*335 FILLER_0_16_197
*336 FILLER_0_16_209
*337 FILLER_0_16_221
*338 FILLER_0_16_233
*339 FILLER_0_16_245
*340 FILLER_0_16_251
*341 FILLER_0_16_253
*342 FILLER_0_16_265
*343 FILLER_0_16_27
*344 FILLER_0_16_277
*345 FILLER_0_16_289
*346 FILLER_0_16_29
*347 FILLER_0_16_3
*348 FILLER_0_16_301
*349 FILLER_0_16_307
*350 FILLER_0_16_309
*351 FILLER_0_16_321
*352 FILLER_0_16_333
*353 FILLER_0_16_345
*354 FILLER_0_16_41
*355 FILLER_0_16_53
*356 FILLER_0_16_65
*357 FILLER_0_16_77
*358 FILLER_0_16_83
*359 FILLER_0_16_85
*360 FILLER_0_16_97
*361 FILLER_0_17_105
*362 FILLER_0_17_111
*363 FILLER_0_17_113
*364 FILLER_0_17_125
*365 FILLER_0_17_137
*366 FILLER_0_17_149
*367 FILLER_0_17_15
*368 FILLER_0_17_161
*369 FILLER_0_17_167
*370 FILLER_0_17_169
*371 FILLER_0_17_181
*372 FILLER_0_17_193
*373 FILLER_0_17_205
*374 FILLER_0_17_217
*375 FILLER_0_17_223
*376 FILLER_0_17_225
*377 FILLER_0_17_237
*378 FILLER_0_17_249
*379 FILLER_0_17_261
*380 FILLER_0_17_27
*381 FILLER_0_17_273
*382 FILLER_0_17_279
*383 FILLER_0_17_281
*384 FILLER_0_17_293
*385 FILLER_0_17_3
*386 FILLER_0_17_305
*387 FILLER_0_17_317
*388 FILLER_0_17_329
*389 FILLER_0_17_335
*390 FILLER_0_17_337
*391 FILLER_0_17_349
*392 FILLER_0_17_39
*393 FILLER_0_17_51
*394 FILLER_0_17_55
*395 FILLER_0_17_57
*396 FILLER_0_17_69
*397 FILLER_0_17_81
*398 FILLER_0_17_93
*399 FILLER_0_18_109
*400 FILLER_0_18_121
*401 FILLER_0_18_133
*402 FILLER_0_18_139
*403 FILLER_0_18_141
*404 FILLER_0_18_15
*405 FILLER_0_18_153
*406 FILLER_0_18_165
*407 FILLER_0_18_177
*408 FILLER_0_18_189
*409 FILLER_0_18_195
*410 FILLER_0_18_197
*411 FILLER_0_18_209
*412 FILLER_0_18_221
*413 FILLER_0_18_233
*414 FILLER_0_18_245
*415 FILLER_0_18_251
*416 FILLER_0_18_253
*417 FILLER_0_18_265
*418 FILLER_0_18_27
*419 FILLER_0_18_277
*420 FILLER_0_18_289
*421 FILLER_0_18_29
*422 FILLER_0_18_3
*423 FILLER_0_18_301
*424 FILLER_0_18_307
*425 FILLER_0_18_309
*426 FILLER_0_18_321
*427 FILLER_0_18_333
*428 FILLER_0_18_345
*429 FILLER_0_18_41
*430 FILLER_0_18_53
*431 FILLER_0_18_65
*432 FILLER_0_18_77
*433 FILLER_0_18_83
*434 FILLER_0_18_85
*435 FILLER_0_18_97
*436 FILLER_0_19_105
*437 FILLER_0_19_111
*438 FILLER_0_19_113
*439 FILLER_0_19_125
*440 FILLER_0_19_137
*441 FILLER_0_19_149
*442 FILLER_0_19_15
*443 FILLER_0_19_161
*444 FILLER_0_19_167
*445 FILLER_0_19_169
*446 FILLER_0_19_181
*447 FILLER_0_19_193
*448 FILLER_0_19_205
*449 FILLER_0_19_217
*450 FILLER_0_19_223
*451 FILLER_0_19_225
*452 FILLER_0_19_237
*453 FILLER_0_19_249
*454 FILLER_0_19_261
*455 FILLER_0_19_27
*456 FILLER_0_19_273
*457 FILLER_0_19_279
*458 FILLER_0_19_281
*459 FILLER_0_19_293
*460 FILLER_0_19_3
*461 FILLER_0_19_305
*462 FILLER_0_19_317
*463 FILLER_0_19_329
*464 FILLER_0_19_335
*465 FILLER_0_19_337
*466 FILLER_0_19_349
*467 FILLER_0_19_39
*468 FILLER_0_19_51
*469 FILLER_0_19_55
*470 FILLER_0_19_57
*471 FILLER_0_19_69
*472 FILLER_0_19_81
*473 FILLER_0_19_93
*474 FILLER_0_1_105
*475 FILLER_0_1_111
*476 FILLER_0_1_113
*477 FILLER_0_1_125
*478 FILLER_0_1_137
*479 FILLER_0_1_149
*480 FILLER_0_1_15
*481 FILLER_0_1_161
*482 FILLER_0_1_167
*483 FILLER_0_1_169
*484 FILLER_0_1_181
*485 FILLER_0_1_193
*486 FILLER_0_1_205
*487 FILLER_0_1_217
*488 FILLER_0_1_223
*489 FILLER_0_1_225
*490 FILLER_0_1_237
*491 FILLER_0_1_249
*492 FILLER_0_1_261
*493 FILLER_0_1_27
*494 FILLER_0_1_273
*495 FILLER_0_1_279
*496 FILLER_0_1_281
*497 FILLER_0_1_293
*498 FILLER_0_1_3
*499 FILLER_0_1_305
*500 FILLER_0_1_317
*501 FILLER_0_1_329
*502 FILLER_0_1_335
*503 FILLER_0_1_337
*504 FILLER_0_1_349
*505 FILLER_0_1_39
*506 FILLER_0_1_51
*507 FILLER_0_1_55
*508 FILLER_0_1_57
*509 FILLER_0_1_69
*510 FILLER_0_1_81
*511 FILLER_0_1_93
*512 FILLER_0_20_109
*513 FILLER_0_20_121
*514 FILLER_0_20_133
*515 FILLER_0_20_139
*516 FILLER_0_20_141
*517 FILLER_0_20_15
*518 FILLER_0_20_153
*519 FILLER_0_20_165
*520 FILLER_0_20_177
*521 FILLER_0_20_189
*522 FILLER_0_20_195
*523 FILLER_0_20_197
*524 FILLER_0_20_209
*525 FILLER_0_20_221
*526 FILLER_0_20_233
*527 FILLER_0_20_245
*528 FILLER_0_20_251
*529 FILLER_0_20_253
*530 FILLER_0_20_265
*531 FILLER_0_20_27
*532 FILLER_0_20_277
*533 FILLER_0_20_289
*534 FILLER_0_20_29
*535 FILLER_0_20_3
*536 FILLER_0_20_301
*537 FILLER_0_20_307
*538 FILLER_0_20_309
*539 FILLER_0_20_321
*540 FILLER_0_20_333
*541 FILLER_0_20_345
*542 FILLER_0_20_41
*543 FILLER_0_20_53
*544 FILLER_0_20_65
*545 FILLER_0_20_77
*546 FILLER_0_20_83
*547 FILLER_0_20_85
*548 FILLER_0_20_97
*549 FILLER_0_21_105
*550 FILLER_0_21_111
*551 FILLER_0_21_113
*552 FILLER_0_21_125
*553 FILLER_0_21_137
*554 FILLER_0_21_149
*555 FILLER_0_21_15
*556 FILLER_0_21_161
*557 FILLER_0_21_167
*558 FILLER_0_21_169
*559 FILLER_0_21_181
*560 FILLER_0_21_193
*561 FILLER_0_21_205
*562 FILLER_0_21_217
*563 FILLER_0_21_223
*564 FILLER_0_21_225
*565 FILLER_0_21_237
*566 FILLER_0_21_249
*567 FILLER_0_21_261
*568 FILLER_0_21_27
*569 FILLER_0_21_273
*570 FILLER_0_21_279
*571 FILLER_0_21_281
*572 FILLER_0_21_293
*573 FILLER_0_21_3
*574 FILLER_0_21_305
*575 FILLER_0_21_317
*576 FILLER_0_21_329
*577 FILLER_0_21_335
*578 FILLER_0_21_337
*579 FILLER_0_21_349
*580 FILLER_0_21_39
*581 FILLER_0_21_51
*582 FILLER_0_21_55
*583 FILLER_0_21_57
*584 FILLER_0_21_69
*585 FILLER_0_21_81
*586 FILLER_0_21_93
*587 FILLER_0_22_109
*588 FILLER_0_22_121
*589 FILLER_0_22_133
*590 FILLER_0_22_139
*591 FILLER_0_22_141
*592 FILLER_0_22_15
*593 FILLER_0_22_153
*594 FILLER_0_22_165
*595 FILLER_0_22_177
*596 FILLER_0_22_189
*597 FILLER_0_22_195
*598 FILLER_0_22_197
*599 FILLER_0_22_209
*600 FILLER_0_22_221
*601 FILLER_0_22_233
*602 FILLER_0_22_245
*603 FILLER_0_22_251
*604 FILLER_0_22_253
*605 FILLER_0_22_265
*606 FILLER_0_22_27
*607 FILLER_0_22_277
*608 FILLER_0_22_289
*609 FILLER_0_22_29
*610 FILLER_0_22_3
*611 FILLER_0_22_301
*612 FILLER_0_22_307
*613 FILLER_0_22_309
*614 FILLER_0_22_321
*615 FILLER_0_22_333
*616 FILLER_0_22_345
*617 FILLER_0_22_41
*618 FILLER_0_22_53
*619 FILLER_0_22_65
*620 FILLER_0_22_77
*621 FILLER_0_22_83
*622 FILLER_0_22_85
*623 FILLER_0_22_97
*624 FILLER_0_23_105
*625 FILLER_0_23_111
*626 FILLER_0_23_113
*627 FILLER_0_23_125
*628 FILLER_0_23_137
*629 FILLER_0_23_149
*630 FILLER_0_23_15
*631 FILLER_0_23_161
*632 FILLER_0_23_167
*633 FILLER_0_23_169
*634 FILLER_0_23_181
*635 FILLER_0_23_193
*636 FILLER_0_23_205
*637 FILLER_0_23_217
*638 FILLER_0_23_223
*639 FILLER_0_23_225
*640 FILLER_0_23_237
*641 FILLER_0_23_249
*642 FILLER_0_23_261
*643 FILLER_0_23_27
*644 FILLER_0_23_273
*645 FILLER_0_23_279
*646 FILLER_0_23_281
*647 FILLER_0_23_293
*648 FILLER_0_23_3
*649 FILLER_0_23_305
*650 FILLER_0_23_317
*651 FILLER_0_23_329
*652 FILLER_0_23_335
*653 FILLER_0_23_337
*654 FILLER_0_23_349
*655 FILLER_0_23_39
*656 FILLER_0_23_51
*657 FILLER_0_23_55
*658 FILLER_0_23_57
*659 FILLER_0_23_69
*660 FILLER_0_23_81
*661 FILLER_0_23_93
*662 FILLER_0_24_109
*663 FILLER_0_24_121
*664 FILLER_0_24_133
*665 FILLER_0_24_139
*666 FILLER_0_24_141
*667 FILLER_0_24_15
*668 FILLER_0_24_153
*669 FILLER_0_24_165
*670 FILLER_0_24_177
*671 FILLER_0_24_189
*672 FILLER_0_24_195
*673 FILLER_0_24_197
*674 FILLER_0_24_209
*675 FILLER_0_24_221
*676 FILLER_0_24_233
*677 FILLER_0_24_245
*678 FILLER_0_24_251
*679 FILLER_0_24_253
*680 FILLER_0_24_265
*681 FILLER_0_24_27
*682 FILLER_0_24_277
*683 FILLER_0_24_289
*684 FILLER_0_24_29
*685 FILLER_0_24_3
*686 FILLER_0_24_301
*687 FILLER_0_24_307
*688 FILLER_0_24_309
*689 FILLER_0_24_321
*690 FILLER_0_24_333
*691 FILLER_0_24_345
*692 FILLER_0_24_41
*693 FILLER_0_24_53
*694 FILLER_0_24_65
*695 FILLER_0_24_77
*696 FILLER_0_24_83
*697 FILLER_0_24_85
*698 FILLER_0_24_97
*699 FILLER_0_25_105
*700 FILLER_0_25_111
*701 FILLER_0_25_113
*702 FILLER_0_25_125
*703 FILLER_0_25_137
*704 FILLER_0_25_149
*705 FILLER_0_25_15
*706 FILLER_0_25_161
*707 FILLER_0_25_167
*708 FILLER_0_25_169
*709 FILLER_0_25_181
*710 FILLER_0_25_193
*711 FILLER_0_25_205
*712 FILLER_0_25_217
*713 FILLER_0_25_223
*714 FILLER_0_25_225
*715 FILLER_0_25_237
*716 FILLER_0_25_249
*717 FILLER_0_25_261
*718 FILLER_0_25_27
*719 FILLER_0_25_273
*720 FILLER_0_25_279
*721 FILLER_0_25_281
*722 FILLER_0_25_293
*723 FILLER_0_25_3
*724 FILLER_0_25_305
*725 FILLER_0_25_317
*726 FILLER_0_25_329
*727 FILLER_0_25_335
*728 FILLER_0_25_337
*729 FILLER_0_25_349
*730 FILLER_0_25_39
*731 FILLER_0_25_51
*732 FILLER_0_25_55
*733 FILLER_0_25_57
*734 FILLER_0_25_69
*735 FILLER_0_25_81
*736 FILLER_0_25_93
*737 FILLER_0_26_109
*738 FILLER_0_26_121
*739 FILLER_0_26_133
*740 FILLER_0_26_139
*741 FILLER_0_26_141
*742 FILLER_0_26_15
*743 FILLER_0_26_153
*744 FILLER_0_26_165
*745 FILLER_0_26_177
*746 FILLER_0_26_189
*747 FILLER_0_26_195
*748 FILLER_0_26_197
*749 FILLER_0_26_209
*750 FILLER_0_26_221
*751 FILLER_0_26_233
*752 FILLER_0_26_245
*753 FILLER_0_26_251
*754 FILLER_0_26_253
*755 FILLER_0_26_265
*756 FILLER_0_26_27
*757 FILLER_0_26_277
*758 FILLER_0_26_289
*759 FILLER_0_26_29
*760 FILLER_0_26_3
*761 FILLER_0_26_301
*762 FILLER_0_26_307
*763 FILLER_0_26_309
*764 FILLER_0_26_321
*765 FILLER_0_26_333
*766 FILLER_0_26_345
*767 FILLER_0_26_41
*768 FILLER_0_26_53
*769 FILLER_0_26_65
*770 FILLER_0_26_77
*771 FILLER_0_26_83
*772 FILLER_0_26_85
*773 FILLER_0_26_97
*774 FILLER_0_27_105
*775 FILLER_0_27_111
*776 FILLER_0_27_113
*777 FILLER_0_27_125
*778 FILLER_0_27_137
*779 FILLER_0_27_149
*780 FILLER_0_27_15
*781 FILLER_0_27_161
*782 FILLER_0_27_167
*783 FILLER_0_27_169
*784 FILLER_0_27_181
*785 FILLER_0_27_193
*786 FILLER_0_27_205
*787 FILLER_0_27_217
*788 FILLER_0_27_223
*789 FILLER_0_27_225
*790 FILLER_0_27_237
*791 FILLER_0_27_249
*792 FILLER_0_27_261
*793 FILLER_0_27_27
*794 FILLER_0_27_273
*795 FILLER_0_27_279
*796 FILLER_0_27_281
*797 FILLER_0_27_293
*798 FILLER_0_27_3
*799 FILLER_0_27_305
*800 FILLER_0_27_317
*801 FILLER_0_27_329
*802 FILLER_0_27_335
*803 FILLER_0_27_337
*804 FILLER_0_27_349
*805 FILLER_0_27_39
*806 FILLER_0_27_51
*807 FILLER_0_27_55
*808 FILLER_0_27_57
*809 FILLER_0_27_69
*810 FILLER_0_27_81
*811 FILLER_0_27_93
*812 FILLER_0_28_109
*813 FILLER_0_28_121
*814 FILLER_0_28_133
*815 FILLER_0_28_139
*816 FILLER_0_28_141
*817 FILLER_0_28_15
*818 FILLER_0_28_153
*819 FILLER_0_28_165
*820 FILLER_0_28_177
*821 FILLER_0_28_189
*822 FILLER_0_28_195
*823 FILLER_0_28_197
*824 FILLER_0_28_209
*825 FILLER_0_28_221
*826 FILLER_0_28_233
*827 FILLER_0_28_245
*828 FILLER_0_28_251
*829 FILLER_0_28_253
*830 FILLER_0_28_265
*831 FILLER_0_28_27
*832 FILLER_0_28_277
*833 FILLER_0_28_289
*834 FILLER_0_28_29
*835 FILLER_0_28_3
*836 FILLER_0_28_301
*837 FILLER_0_28_307
*838 FILLER_0_28_309
*839 FILLER_0_28_321
*840 FILLER_0_28_333
*841 FILLER_0_28_345
*842 FILLER_0_28_41
*843 FILLER_0_28_53
*844 FILLER_0_28_65
*845 FILLER_0_28_77
*846 FILLER_0_28_83
*847 FILLER_0_28_85
*848 FILLER_0_28_97
*849 FILLER_0_29_105
*850 FILLER_0_29_111
*851 FILLER_0_29_113
*852 FILLER_0_29_125
*853 FILLER_0_29_137
*854 FILLER_0_29_149
*855 FILLER_0_29_15
*856 FILLER_0_29_161
*857 FILLER_0_29_167
*858 FILLER_0_29_169
*859 FILLER_0_29_181
*860 FILLER_0_29_193
*861 FILLER_0_29_205
*862 FILLER_0_29_217
*863 FILLER_0_29_223
*864 FILLER_0_29_225
*865 FILLER_0_29_237
*866 FILLER_0_29_249
*867 FILLER_0_29_261
*868 FILLER_0_29_27
*869 FILLER_0_29_273
*870 FILLER_0_29_279
*871 FILLER_0_29_281
*872 FILLER_0_29_293
*873 FILLER_0_29_3
*874 FILLER_0_29_305
*875 FILLER_0_29_317
*876 FILLER_0_29_329
*877 FILLER_0_29_335
*878 FILLER_0_29_337
*879 FILLER_0_29_349
*880 FILLER_0_29_39
*881 FILLER_0_29_51
*882 FILLER_0_29_55
*883 FILLER_0_29_57
*884 FILLER_0_29_69
*885 FILLER_0_29_81
*886 FILLER_0_29_93
*887 FILLER_0_2_109
*888 FILLER_0_2_121
*889 FILLER_0_2_133
*890 FILLER_0_2_139
*891 FILLER_0_2_141
*892 FILLER_0_2_15
*893 FILLER_0_2_153
*894 FILLER_0_2_165
*895 FILLER_0_2_177
*896 FILLER_0_2_189
*897 FILLER_0_2_195
*898 FILLER_0_2_197
*899 FILLER_0_2_209
*900 FILLER_0_2_221
*901 FILLER_0_2_233
*902 FILLER_0_2_245
*903 FILLER_0_2_251
*904 FILLER_0_2_253
*905 FILLER_0_2_265
*906 FILLER_0_2_27
*907 FILLER_0_2_277
*908 FILLER_0_2_289
*909 FILLER_0_2_29
*910 FILLER_0_2_3
*911 FILLER_0_2_301
*912 FILLER_0_2_307
*913 FILLER_0_2_309
*914 FILLER_0_2_321
*915 FILLER_0_2_333
*916 FILLER_0_2_345
*917 FILLER_0_2_41
*918 FILLER_0_2_53
*919 FILLER_0_2_65
*920 FILLER_0_2_77
*921 FILLER_0_2_83
*922 FILLER_0_2_85
*923 FILLER_0_2_97
*924 FILLER_0_30_109
*925 FILLER_0_30_121
*926 FILLER_0_30_133
*927 FILLER_0_30_139
*928 FILLER_0_30_141
*929 FILLER_0_30_15
*930 FILLER_0_30_153
*931 FILLER_0_30_165
*932 FILLER_0_30_177
*933 FILLER_0_30_189
*934 FILLER_0_30_195
*935 FILLER_0_30_197
*936 FILLER_0_30_209
*937 FILLER_0_30_221
*938 FILLER_0_30_233
*939 FILLER_0_30_245
*940 FILLER_0_30_251
*941 FILLER_0_30_253
*942 FILLER_0_30_265
*943 FILLER_0_30_27
*944 FILLER_0_30_277
*945 FILLER_0_30_289
*946 FILLER_0_30_29
*947 FILLER_0_30_3
*948 FILLER_0_30_301
*949 FILLER_0_30_307
*950 FILLER_0_30_309
*951 FILLER_0_30_321
*952 FILLER_0_30_333
*953 FILLER_0_30_345
*954 FILLER_0_30_41
*955 FILLER_0_30_53
*956 FILLER_0_30_65
*957 FILLER_0_30_77
*958 FILLER_0_30_83
*959 FILLER_0_30_85
*960 FILLER_0_30_97
*961 FILLER_0_31_105
*962 FILLER_0_31_111
*963 FILLER_0_31_113
*964 FILLER_0_31_125
*965 FILLER_0_31_137
*966 FILLER_0_31_149
*967 FILLER_0_31_15
*968 FILLER_0_31_161
*969 FILLER_0_31_167
*970 FILLER_0_31_169
*971 FILLER_0_31_181
*972 FILLER_0_31_193
*973 FILLER_0_31_205
*974 FILLER_0_31_217
*975 FILLER_0_31_223
*976 FILLER_0_31_225
*977 FILLER_0_31_237
*978 FILLER_0_31_249
*979 FILLER_0_31_261
*980 FILLER_0_31_27
*981 FILLER_0_31_273
*982 FILLER_0_31_279
*983 FILLER_0_31_281
*984 FILLER_0_31_293
*985 FILLER_0_31_3
*986 FILLER_0_31_305
*987 FILLER_0_31_317
*988 FILLER_0_31_329
*989 FILLER_0_31_335
*990 FILLER_0_31_337
*991 FILLER_0_31_349
*992 FILLER_0_31_39
*993 FILLER_0_31_51
*994 FILLER_0_31_55
*995 FILLER_0_31_57
*996 FILLER_0_31_69
*997 FILLER_0_31_81
*998 FILLER_0_31_93
*999 FILLER_0_32_109
*1000 FILLER_0_32_121
*1001 FILLER_0_32_133
*1002 FILLER_0_32_139
*1003 FILLER_0_32_141
*1004 FILLER_0_32_15
*1005 FILLER_0_32_153
*1006 FILLER_0_32_165
*1007 FILLER_0_32_177
*1008 FILLER_0_32_189
*1009 FILLER_0_32_195
*1010 FILLER_0_32_197
*1011 FILLER_0_32_209
*1012 FILLER_0_32_221
*1013 FILLER_0_32_233
*1014 FILLER_0_32_245
*1015 FILLER_0_32_251
*1016 FILLER_0_32_253
*1017 FILLER_0_32_265
*1018 FILLER_0_32_27
*1019 FILLER_0_32_277
*1020 FILLER_0_32_289
*1021 FILLER_0_32_29
*1022 FILLER_0_32_3
*1023 FILLER_0_32_301
*1024 FILLER_0_32_307
*1025 FILLER_0_32_309
*1026 FILLER_0_32_321
*1027 FILLER_0_32_333
*1028 FILLER_0_32_345
*1029 FILLER_0_32_41
*1030 FILLER_0_32_53
*1031 FILLER_0_32_65
*1032 FILLER_0_32_77
*1033 FILLER_0_32_83
*1034 FILLER_0_32_85
*1035 FILLER_0_32_97
*1036 FILLER_0_33_105
*1037 FILLER_0_33_111
*1038 FILLER_0_33_113
*1039 FILLER_0_33_125
*1040 FILLER_0_33_137
*1041 FILLER_0_33_149
*1042 FILLER_0_33_15
*1043 FILLER_0_33_161
*1044 FILLER_0_33_167
*1045 FILLER_0_33_169
*1046 FILLER_0_33_181
*1047 FILLER_0_33_193
*1048 FILLER_0_33_205
*1049 FILLER_0_33_217
*1050 FILLER_0_33_223
*1051 FILLER_0_33_225
*1052 FILLER_0_33_237
*1053 FILLER_0_33_249
*1054 FILLER_0_33_261
*1055 FILLER_0_33_27
*1056 FILLER_0_33_273
*1057 FILLER_0_33_279
*1058 FILLER_0_33_281
*1059 FILLER_0_33_293
*1060 FILLER_0_33_3
*1061 FILLER_0_33_305
*1062 FILLER_0_33_317
*1063 FILLER_0_33_329
*1064 FILLER_0_33_335
*1065 FILLER_0_33_337
*1066 FILLER_0_33_349
*1067 FILLER_0_33_39
*1068 FILLER_0_33_51
*1069 FILLER_0_33_55
*1070 FILLER_0_33_57
*1071 FILLER_0_33_69
*1072 FILLER_0_33_81
*1073 FILLER_0_33_93
*1074 FILLER_0_34_109
*1075 FILLER_0_34_121
*1076 FILLER_0_34_133
*1077 FILLER_0_34_139
*1078 FILLER_0_34_141
*1079 FILLER_0_34_15
*1080 FILLER_0_34_153
*1081 FILLER_0_34_165
*1082 FILLER_0_34_177
*1083 FILLER_0_34_189
*1084 FILLER_0_34_195
*1085 FILLER_0_34_197
*1086 FILLER_0_34_209
*1087 FILLER_0_34_221
*1088 FILLER_0_34_233
*1089 FILLER_0_34_245
*1090 FILLER_0_34_251
*1091 FILLER_0_34_253
*1092 FILLER_0_34_265
*1093 FILLER_0_34_27
*1094 FILLER_0_34_277
*1095 FILLER_0_34_289
*1096 FILLER_0_34_29
*1097 FILLER_0_34_3
*1098 FILLER_0_34_301
*1099 FILLER_0_34_307
*1100 FILLER_0_34_309
*1101 FILLER_0_34_321
*1102 FILLER_0_34_333
*1103 FILLER_0_34_345
*1104 FILLER_0_34_41
*1105 FILLER_0_34_53
*1106 FILLER_0_34_65
*1107 FILLER_0_34_77
*1108 FILLER_0_34_83
*1109 FILLER_0_34_85
*1110 FILLER_0_34_97
*1111 FILLER_0_35_105
*1112 FILLER_0_35_111
*1113 FILLER_0_35_113
*1114 FILLER_0_35_125
*1115 FILLER_0_35_137
*1116 FILLER_0_35_149
*1117 FILLER_0_35_15
*1118 FILLER_0_35_161
*1119 FILLER_0_35_167
*1120 FILLER_0_35_169
*1121 FILLER_0_35_181
*1122 FILLER_0_35_193
*1123 FILLER_0_35_205
*1124 FILLER_0_35_217
*1125 FILLER_0_35_223
*1126 FILLER_0_35_225
*1127 FILLER_0_35_237
*1128 FILLER_0_35_249
*1129 FILLER_0_35_261
*1130 FILLER_0_35_27
*1131 FILLER_0_35_273
*1132 FILLER_0_35_279
*1133 FILLER_0_35_281
*1134 FILLER_0_35_293
*1135 FILLER_0_35_3
*1136 FILLER_0_35_305
*1137 FILLER_0_35_317
*1138 FILLER_0_35_329
*1139 FILLER_0_35_335
*1140 FILLER_0_35_337
*1141 FILLER_0_35_349
*1142 FILLER_0_35_39
*1143 FILLER_0_35_51
*1144 FILLER_0_35_55
*1145 FILLER_0_35_57
*1146 FILLER_0_35_69
*1147 FILLER_0_35_81
*1148 FILLER_0_35_93
*1149 FILLER_0_36_109
*1150 FILLER_0_36_121
*1151 FILLER_0_36_133
*1152 FILLER_0_36_139
*1153 FILLER_0_36_141
*1154 FILLER_0_36_15
*1155 FILLER_0_36_153
*1156 FILLER_0_36_165
*1157 FILLER_0_36_177
*1158 FILLER_0_36_189
*1159 FILLER_0_36_195
*1160 FILLER_0_36_197
*1161 FILLER_0_36_209
*1162 FILLER_0_36_221
*1163 FILLER_0_36_233
*1164 FILLER_0_36_245
*1165 FILLER_0_36_251
*1166 FILLER_0_36_253
*1167 FILLER_0_36_265
*1168 FILLER_0_36_27
*1169 FILLER_0_36_277
*1170 FILLER_0_36_289
*1171 FILLER_0_36_29
*1172 FILLER_0_36_3
*1173 FILLER_0_36_301
*1174 FILLER_0_36_307
*1175 FILLER_0_36_309
*1176 FILLER_0_36_321
*1177 FILLER_0_36_333
*1178 FILLER_0_36_345
*1179 FILLER_0_36_41
*1180 FILLER_0_36_53
*1181 FILLER_0_36_65
*1182 FILLER_0_36_77
*1183 FILLER_0_36_83
*1184 FILLER_0_36_85
*1185 FILLER_0_36_97
*1186 FILLER_0_37_105
*1187 FILLER_0_37_111
*1188 FILLER_0_37_113
*1189 FILLER_0_37_125
*1190 FILLER_0_37_137
*1191 FILLER_0_37_149
*1192 FILLER_0_37_15
*1193 FILLER_0_37_161
*1194 FILLER_0_37_167
*1195 FILLER_0_37_169
*1196 FILLER_0_37_181
*1197 FILLER_0_37_193
*1198 FILLER_0_37_205
*1199 FILLER_0_37_217
*1200 FILLER_0_37_223
*1201 FILLER_0_37_225
*1202 FILLER_0_37_237
*1203 FILLER_0_37_249
*1204 FILLER_0_37_267
*1205 FILLER_0_37_27
*1206 FILLER_0_37_272
*1207 FILLER_0_37_278
*1208 FILLER_0_37_284
*1209 FILLER_0_37_296
*1210 FILLER_0_37_3
*1211 FILLER_0_37_308
*1212 FILLER_0_37_320
*1213 FILLER_0_37_332
*1214 FILLER_0_37_337
*1215 FILLER_0_37_349
*1216 FILLER_0_37_39
*1217 FILLER_0_37_51
*1218 FILLER_0_37_55
*1219 FILLER_0_37_57
*1220 FILLER_0_37_69
*1221 FILLER_0_37_81
*1222 FILLER_0_37_93
*1223 FILLER_0_38_104
*1224 FILLER_0_38_110
*1225 FILLER_0_38_116
*1226 FILLER_0_38_122
*1227 FILLER_0_38_128
*1228 FILLER_0_38_134
*1229 FILLER_0_38_141
*1230 FILLER_0_38_146
*1231 FILLER_0_38_15
*1232 FILLER_0_38_152
*1233 FILLER_0_38_158
*1234 FILLER_0_38_164
*1235 FILLER_0_38_169
*1236 FILLER_0_38_176
*1237 FILLER_0_38_182
*1238 FILLER_0_38_188
*1239 FILLER_0_38_194
*1240 FILLER_0_38_200
*1241 FILLER_0_38_212
*1242 FILLER_0_38_225
*1243 FILLER_0_38_232
*1244 FILLER_0_38_247
*1245 FILLER_0_38_251
*1246 FILLER_0_38_253
*1247 FILLER_0_38_266
*1248 FILLER_0_38_27
*1249 FILLER_0_38_274
*1250 FILLER_0_38_284
*1251 FILLER_0_38_29
*1252 FILLER_0_38_297
*1253 FILLER_0_38_3
*1254 FILLER_0_38_302
*1255 FILLER_0_38_309
*1256 FILLER_0_38_321
*1257 FILLER_0_38_333
*1258 FILLER_0_38_337
*1259 FILLER_0_38_349
*1260 FILLER_0_38_41
*1261 FILLER_0_38_53
*1262 FILLER_0_38_57
*1263 FILLER_0_38_68
*1264 FILLER_0_38_74
*1265 FILLER_0_38_80
*1266 FILLER_0_38_88
*1267 FILLER_0_38_92
*1268 FILLER_0_38_98
*1269 FILLER_0_3_105
*1270 FILLER_0_3_111
*1271 FILLER_0_3_113
*1272 FILLER_0_3_125
*1273 FILLER_0_3_137
*1274 FILLER_0_3_149
*1275 FILLER_0_3_15
*1276 FILLER_0_3_161
*1277 FILLER_0_3_167
*1278 FILLER_0_3_169
*1279 FILLER_0_3_181
*1280 FILLER_0_3_193
*1281 FILLER_0_3_205
*1282 FILLER_0_3_217
*1283 FILLER_0_3_223
*1284 FILLER_0_3_225
*1285 FILLER_0_3_237
*1286 FILLER_0_3_249
*1287 FILLER_0_3_261
*1288 FILLER_0_3_27
*1289 FILLER_0_3_273
*1290 FILLER_0_3_279
*1291 FILLER_0_3_281
*1292 FILLER_0_3_293
*1293 FILLER_0_3_3
*1294 FILLER_0_3_305
*1295 FILLER_0_3_317
*1296 FILLER_0_3_329
*1297 FILLER_0_3_335
*1298 FILLER_0_3_337
*1299 FILLER_0_3_349
*1300 FILLER_0_3_39
*1301 FILLER_0_3_51
*1302 FILLER_0_3_55
*1303 FILLER_0_3_57
*1304 FILLER_0_3_69
*1305 FILLER_0_3_81
*1306 FILLER_0_3_93
*1307 FILLER_0_4_109
*1308 FILLER_0_4_121
*1309 FILLER_0_4_133
*1310 FILLER_0_4_139
*1311 FILLER_0_4_141
*1312 FILLER_0_4_15
*1313 FILLER_0_4_153
*1314 FILLER_0_4_165
*1315 FILLER_0_4_177
*1316 FILLER_0_4_189
*1317 FILLER_0_4_195
*1318 FILLER_0_4_197
*1319 FILLER_0_4_209
*1320 FILLER_0_4_221
*1321 FILLER_0_4_233
*1322 FILLER_0_4_245
*1323 FILLER_0_4_251
*1324 FILLER_0_4_253
*1325 FILLER_0_4_265
*1326 FILLER_0_4_27
*1327 FILLER_0_4_277
*1328 FILLER_0_4_289
*1329 FILLER_0_4_29
*1330 FILLER_0_4_3
*1331 FILLER_0_4_301
*1332 FILLER_0_4_307
*1333 FILLER_0_4_309
*1334 FILLER_0_4_321
*1335 FILLER_0_4_333
*1336 FILLER_0_4_345
*1337 FILLER_0_4_41
*1338 FILLER_0_4_53
*1339 FILLER_0_4_65
*1340 FILLER_0_4_77
*1341 FILLER_0_4_83
*1342 FILLER_0_4_85
*1343 FILLER_0_4_97
*1344 FILLER_0_5_105
*1345 FILLER_0_5_111
*1346 FILLER_0_5_113
*1347 FILLER_0_5_125
*1348 FILLER_0_5_137
*1349 FILLER_0_5_149
*1350 FILLER_0_5_15
*1351 FILLER_0_5_161
*1352 FILLER_0_5_167
*1353 FILLER_0_5_169
*1354 FILLER_0_5_181
*1355 FILLER_0_5_193
*1356 FILLER_0_5_205
*1357 FILLER_0_5_217
*1358 FILLER_0_5_223
*1359 FILLER_0_5_225
*1360 FILLER_0_5_237
*1361 FILLER_0_5_249
*1362 FILLER_0_5_261
*1363 FILLER_0_5_27
*1364 FILLER_0_5_273
*1365 FILLER_0_5_279
*1366 FILLER_0_5_281
*1367 FILLER_0_5_293
*1368 FILLER_0_5_3
*1369 FILLER_0_5_305
*1370 FILLER_0_5_317
*1371 FILLER_0_5_329
*1372 FILLER_0_5_335
*1373 FILLER_0_5_337
*1374 FILLER_0_5_349
*1375 FILLER_0_5_39
*1376 FILLER_0_5_51
*1377 FILLER_0_5_55
*1378 FILLER_0_5_57
*1379 FILLER_0_5_69
*1380 FILLER_0_5_81
*1381 FILLER_0_5_93
*1382 FILLER_0_6_109
*1383 FILLER_0_6_121
*1384 FILLER_0_6_133
*1385 FILLER_0_6_139
*1386 FILLER_0_6_141
*1387 FILLER_0_6_15
*1388 FILLER_0_6_153
*1389 FILLER_0_6_165
*1390 FILLER_0_6_177
*1391 FILLER_0_6_189
*1392 FILLER_0_6_195
*1393 FILLER_0_6_197
*1394 FILLER_0_6_209
*1395 FILLER_0_6_221
*1396 FILLER_0_6_233
*1397 FILLER_0_6_245
*1398 FILLER_0_6_251
*1399 FILLER_0_6_253
*1400 FILLER_0_6_265
*1401 FILLER_0_6_27
*1402 FILLER_0_6_277
*1403 FILLER_0_6_289
*1404 FILLER_0_6_29
*1405 FILLER_0_6_3
*1406 FILLER_0_6_301
*1407 FILLER_0_6_307
*1408 FILLER_0_6_309
*1409 FILLER_0_6_321
*1410 FILLER_0_6_333
*1411 FILLER_0_6_345
*1412 FILLER_0_6_41
*1413 FILLER_0_6_53
*1414 FILLER_0_6_65
*1415 FILLER_0_6_77
*1416 FILLER_0_6_83
*1417 FILLER_0_6_85
*1418 FILLER_0_6_97
*1419 FILLER_0_7_105
*1420 FILLER_0_7_111
*1421 FILLER_0_7_113
*1422 FILLER_0_7_125
*1423 FILLER_0_7_137
*1424 FILLER_0_7_149
*1425 FILLER_0_7_15
*1426 FILLER_0_7_161
*1427 FILLER_0_7_167
*1428 FILLER_0_7_169
*1429 FILLER_0_7_181
*1430 FILLER_0_7_193
*1431 FILLER_0_7_205
*1432 FILLER_0_7_217
*1433 FILLER_0_7_223
*1434 FILLER_0_7_225
*1435 FILLER_0_7_237
*1436 FILLER_0_7_249
*1437 FILLER_0_7_261
*1438 FILLER_0_7_27
*1439 FILLER_0_7_273
*1440 FILLER_0_7_279
*1441 FILLER_0_7_281
*1442 FILLER_0_7_293
*1443 FILLER_0_7_3
*1444 FILLER_0_7_305
*1445 FILLER_0_7_317
*1446 FILLER_0_7_329
*1447 FILLER_0_7_335
*1448 FILLER_0_7_337
*1449 FILLER_0_7_349
*1450 FILLER_0_7_39
*1451 FILLER_0_7_51
*1452 FILLER_0_7_55
*1453 FILLER_0_7_57
*1454 FILLER_0_7_69
*1455 FILLER_0_7_81
*1456 FILLER_0_7_93
*1457 FILLER_0_8_109
*1458 FILLER_0_8_121