*SPEF "ieee 1481-1999"
*DESIGN "tt_um_MichaelBell_spi_peri"
*DATE "11:11:11 Fri 11 11, 1111"
*VENDOR "OpenRCX"
*PROGRAM "Parallel Extraction"
*VERSION "1.0"
*DESIGN_FLOW "NAME_SCOPE LOCAL" "PIN_CAP NONE"
*DIVIDER /
*DELIMITER :
*BUS_DELIMITER []
*T_UNIT 1 NS
*C_UNIT 1 PF
*R_UNIT 1 OHM
*L_UNIT 1 HENRY

*NAME_MAP
*3 clk
*4 ena
*5 rst_n
*6 ui_in[0]
*7 ui_in[1]
*8 ui_in[2]
*9 ui_in[3]
*10 ui_in[4]
*11 ui_in[5]
*12 ui_in[6]
*13 ui_in[7]
*14 uio_in[0]
*15 uio_in[1]
*16 uio_in[2]
*17 uio_in[3]
*18 uio_in[4]
*19 uio_in[5]
*20 uio_in[6]
*21 uio_in[7]
*22 uio_oe[0]
*23 uio_oe[1]
*24 uio_oe[2]
*25 uio_oe[3]
*26 net14
*27 net15
*28 net16
*29 net17
*30 uio_out[0]
*31 uio_out[1]
*32 uio_out[2]
*33 uio_out[3]
*34 uio_out[4]
*35 uio_out[5]
*36 uio_out[6]
*37 uio_out[7]
*38 uo_out[0]
*39 uo_out[1]
*40 uo_out[2]
*41 uo_out[3]
*42 uo_out[4]
*43 uo_out[5]
*44 uo_out[6]
*45 uo_out[7]
*46 _0000_
*47 _0001_
*48 _0002_
*49 _0003_
*50 _0004_
*51 _0005_
*52 _0006_
*53 _0007_
*54 _0008_
*55 _0009_
*56 _0010_
*57 _0011_
*58 _0012_
*59 _0013_
*60 _0014_
*61 _0015_
*62 _0016_
*63 _0017_
*64 _0024_
*65 _0025_
*66 _0026_
*67 _0027_
*68 _0028_
*69 _0029_
*70 _0030_
*71 _0031_
*72 _0032_
*73 _0033_
*74 _0034_
*75 _0035_
*76 _0036_
*77 _0037_
*78 _0038_
*79 _0039_
*80 _0040_
*81 _0041_
*82 _0042_
*83 _0043_
*84 _0044_
*85 _0045_
*86 _0046_
*87 _0047_
*88 _0048_
*89 _0049_
*90 _0050_
*91 _0051_
*92 _0052_
*93 _0053_
*94 _0054_
*95 _0055_
*96 _0056_
*97 _0057_
*98 _0058_
*99 _0059_
*100 _0060_
*101 _0061_
*102 _0062_
*103 _0063_
*104 _0064_
*105 _0065_
*106 _0066_
*107 _0067_
*108 _0068_
*109 _0069_
*110 _0070_
*111 _0071_
*112 _0072_
*113 _0073_
*114 _0074_
*115 _0075_
*116 _0076_
*117 _0077_
*118 _0078_
*119 _0079_
*120 _0080_
*121 _0081_
*122 _0082_
*123 _0083_
*124 _0084_
*125 _0085_
*126 _0086_
*127 _0087_
*128 _0088_
*129 _0089_
*130 _0090_
*131 _0091_
*132 _0092_
*133 _0093_
*134 _0094_
*135 _0095_
*136 _0096_
*137 _0097_
*138 _0098_
*139 _0099_
*140 _0100_
*141 _0101_
*142 _0102_
*143 _0103_
*144 _0104_
*145 _0105_
*146 _0106_
*147 _0107_
*148 _0108_
*149 _0109_
*150 _0110_
*151 _0111_
*152 _0112_
*153 _0113_
*154 _0114_
*155 _0115_
*156 _0116_
*157 _0117_
*158 _0118_
*159 _0119_
*160 _0120_
*161 _0121_
*162 _0122_
*163 _0123_
*164 _0124_
*165 _0125_
*166 _0126_
*167 _0127_
*168 _0128_
*169 _0129_
*170 _0130_
*171 _0131_
*172 _0132_
*173 _0133_
*174 _0134_
*175 _0135_
*176 _0136_
*177 _0137_
*178 _0138_
*179 _0139_
*180 _0140_
*181 _0141_
*182 _0142_
*183 _0143_
*184 _0144_
*185 _0145_
*186 _0146_
*187 _0147_
*188 _0148_
*189 _0149_
*190 _0150_
*191 _0151_
*192 _0152_
*193 _0153_
*194 _0154_
*195 _0155_
*196 _0156_
*197 _0157_
*198 _0158_
*199 _0159_
*200 _0160_
*201 _0161_
*202 _0162_
*203 _0163_
*204 _0164_
*205 _0165_
*206 _0166_
*207 _0167_
*208 _0168_
*209 _0169_
*210 _0170_
*211 _0171_
*212 _0172_
*213 _0173_
*214 _0174_
*215 _0175_
*216 _0176_
*217 _0177_
*218 _0178_
*219 _0179_
*220 _0180_
*221 _0181_
*222 _0182_
*223 _0183_
*224 _0184_
*225 _0185_
*226 _0186_
*227 _0187_
*228 _0188_
*229 _0189_
*230 _0190_
*231 _0191_
*232 _0192_
*233 _0193_
*234 _0194_
*235 _0195_
*236 _0196_
*237 _0197_
*238 _0198_
*239 _0199_
*240 _0200_
*241 _0201_
*242 _0202_
*243 _0203_
*244 _0204_
*245 _0205_
*246 _0206_
*247 _0207_
*248 _0208_
*249 _0209_
*250 _0210_
*251 _0211_
*252 _0212_
*253 _0213_
*254 _0214_
*255 _0215_
*256 _0216_
*257 _0217_
*258 _0218_
*259 _0219_
*260 _0220_
*261 _0221_
*262 _0222_
*263 _0223_
*264 _0224_
*265 _0225_
*266 _0226_
*267 _0227_
*268 _0228_
*269 _0229_
*270 _0230_
*271 _0231_
*272 _0232_
*273 _0233_
*274 _0234_
*275 _0235_
*276 _0236_
*277 _0237_
*278 _0238_
*279 _0239_
*280 _0240_
*281 _0241_
*282 _0242_
*283 _0243_
*284 _0244_
*285 _0245_
*286 _0246_
*287 _0247_
*288 _0248_
*289 _0249_
*290 _0250_
*291 _0251_
*292 _0252_
*293 _0253_
*294 _0254_
*295 _0255_
*296 _0256_
*297 _0257_
*298 _0258_
*299 _0259_
*300 _0260_
*301 _0261_
*302 _0262_
*303 _0263_
*304 _0264_
*305 _0265_
*306 _0266_
*307 _0267_
*308 _0268_
*309 _0269_
*310 _0270_
*311 _0271_
*312 _0272_
*313 _0273_
*314 _0274_
*315 _0275_
*316 _0276_
*317 _0277_
*318 _0278_
*319 _0279_
*320 _0280_
*321 _0281_
*322 _0282_
*323 _0283_
*324 _0284_
*325 _0285_
*326 _0286_
*327 _0287_
*328 _0288_
*329 _0289_
*330 _0290_
*331 _0291_
*332 _0292_
*333 _0293_
*334 _0294_
*335 _0295_
*336 _0296_
*337 _0297_
*338 _0298_
*339 _0299_
*340 _0300_
*341 _0301_
*342 _0302_
*343 _0303_
*344 _0304_
*345 _0305_
*346 _0306_
*347 _0307_
*348 _0308_
*349 _0309_
*350 _0310_
*351 _0311_
*352 _0312_
*353 _0313_
*354 _0314_
*355 _0315_
*356 _0316_
*357 _0317_
*358 _0318_
*359 _0319_
*360 _0320_
*361 _0321_
*362 _0322_
*363 _0323_
*364 _0324_
*365 _0325_
*366 _0326_
*367 _0327_
*368 _0328_
*369 _0329_
*370 _0330_
*371 _0331_
*372 _0332_
*373 _0333_
*374 _0334_
*375 _0335_
*376 _0336_
*377 _0337_
*378 _0338_
*379 _0339_
*380 _0340_
*381 _0341_
*382 _0342_
*383 _0343_
*384 _0344_
*385 _0345_
*386 _0346_
*387 _0347_
*388 _0348_
*389 _0349_
*390 _0350_
*391 _0351_
*392 _0352_
*393 _0353_
*394 _0354_
*395 _0355_
*396 _0356_
*397 _0357_
*398 _0358_
*399 _0359_
*400 _0360_
*401 _0361_
*402 _0362_
*403 _0363_
*404 _0364_
*405 _0365_
*406 _0366_
*407 _0367_
*408 _0368_
*409 _0369_
*410 _0370_
*411 _0371_
*412 _0372_
*413 _0373_
*414 _0374_
*415 _0375_
*416 _0376_
*417 _0377_
*418 _0378_
*419 _0379_
*420 _0380_
*421 _0381_
*422 _0382_
*423 _0383_
*424 _0384_
*425 _0385_
*426 _0386_
*427 _0387_
*428 _0388_
*429 _0389_
*430 _0390_
*431 _0391_
*432 _0392_
*433 _0393_
*434 _0394_
*435 _0395_
*436 _0396_
*437 _0397_
*438 _0398_
*439 _0399_
*440 _0400_
*441 _0401_
*442 _0402_
*443 _0403_
*444 _0404_
*445 _0405_
*446 _0406_
*447 _0407_
*448 _0408_
*449 _0409_
*450 _0410_
*451 _0411_
*452 _0412_
*453 _0413_
*454 _0414_
*455 _0415_
*456 _0416_
*457 _0417_
*458 _0418_
*459 _0419_
*460 _0420_
*461 _0421_
*462 _0422_
*463 _0423_
*464 _0424_
*465 _0425_
*466 _0426_
*467 _0427_
*468 _0428_
*469 _0429_
*470 _0430_
*471 _0431_
*472 _0432_
*473 _0433_
*474 _0434_
*475 _0435_
*476 _0436_
*477 _0437_
*478 _0438_
*479 _0439_
*480 _0440_
*481 _0441_
*482 _0442_
*483 _0443_
*484 _0444_
*485 _0445_
*486 _0446_
*487 _0447_
*488 _0448_
*489 _0449_
*490 _0450_
*491 _0451_
*492 _0452_
*493 _0453_
*494 _0454_
*495 _0455_
*496 _0456_
*497 _0457_
*498 _0458_
*499 _0459_
*500 _0460_
*501 _0461_
*502 _0462_
*503 _0463_
*504 _0464_
*505 _0465_
*506 _0466_
*507 _0467_
*508 _0468_
*509 _0469_
*510 _0470_
*511 _0471_
*512 _0472_
*513 _0473_
*514 _0474_
*515 _0475_
*516 _0476_
*517 _0477_
*518 _0478_
*519 _0479_
*520 _0480_
*521 _0481_
*522 _0482_
*523 _0483_
*524 _0484_
*525 _0485_
*526 _0486_
*527 _0487_
*528 _0488_
*529 _0489_
*530 _0490_
*531 _0491_
*532 _0492_
*533 _0493_
*534 _0494_
*535 _0495_
*536 _0496_
*537 _0497_
*538 _0498_
*539 _0499_
*540 _0500_
*541 _0501_
*542 _0502_
*543 _0503_
*544 _0504_
*545 _0505_
*546 _0506_
*547 _0507_
*548 _0508_
*549 _0509_
*550 _0510_
*551 _0511_
*552 _0512_
*553 _0513_
*554 _0514_
*555 _0515_
*556 _0516_
*557 _0517_
*558 _0518_
*559 _0519_
*560 _0520_
*561 _0521_
*562 _0522_
*563 _0523_
*564 _0524_
*565 _0525_
*566 _0526_
*567 _0527_
*568 _0528_
*569 _0529_
*570 _0530_
*571 _0531_
*572 _0532_
*573 _0533_
*574 _0534_
*575 _0535_
*576 _0536_
*577 _0537_
*578 _0538_
*579 _0539_
*580 _0540_
*581 _0541_
*582 _0542_
*583 _0543_
*584 _0544_
*585 _0545_
*586 _0546_
*587 _0547_
*588 _0548_
*589 _0549_
*590 _0550_
*591 _0551_
*592 _0552_
*593 _0553_
*594 _0554_
*595 _0555_
*596 _0556_
*597 _0557_
*598 _0558_
*599 _0559_
*600 _0560_
*601 _0561_
*602 _0562_
*603 _0563_
*604 _0564_
*605 _0565_
*606 _0566_
*607 _0567_
*608 _0568_
*609 _0569_
*610 _0570_
*611 _0571_
*612 _0572_
*613 _0573_
*614 _0574_
*615 _0575_
*616 _0576_
*617 _0577_
*618 _0578_
*619 _0579_
*620 _0580_
*621 _0581_
*622 _0582_
*623 _0583_
*624 _0584_
*625 _0585_
*626 _0586_
*627 _0587_
*628 _0588_
*629 _0589_
*630 _0590_
*631 _0591_
*632 _0592_
*633 _0593_
*634 _0594_
*635 _0595_
*636 _0596_
*637 _0597_
*638 _0598_
*639 _0599_
*640 _0600_
*641 _0601_
*642 _0602_
*643 _0603_
*644 _0604_
*645 _0605_
*646 _0606_
*647 _0607_
*648 _0608_
*649 _0609_
*650 _0610_
*651 _0611_
*652 _0612_
*653 _0613_
*654 _0614_
*655 _0615_
*656 _0616_
*657 _0617_
*658 _0618_
*659 _0619_
*660 _0620_
*661 _0621_
*662 _0622_
*663 _0623_
*664 _0624_
*665 _0625_
*666 _0626_
*667 _0627_
*668 _0628_
*669 _0629_
*670 _0630_
*671 _0631_
*672 _0632_
*673 _0633_
*674 _0634_
*675 _0635_
*676 _0636_
*677 _0637_
*678 _0638_
*679 _0639_
*680 _0640_
*681 _0641_
*682 _0642_
*683 _0643_
*684 _0644_
*685 _0645_
*686 _0646_
*687 _0647_
*688 _0648_
*689 _0649_
*690 _0650_
*691 _0651_
*692 _0652_
*693 _0653_
*694 _0654_
*695 _0655_
*696 _0656_
*697 _0657_
*698 _0658_
*699 _0659_
*700 _0660_
*701 _0661_
*702 _0662_
*703 _0663_
*704 _0664_
*705 _0665_
*706 _0666_
*707 _0667_
*708 _0668_
*709 _0669_
*710 _0670_
*711 _0671_
*712 _0672_
*713 _0673_
*714 _0674_
*715 _0675_
*716 _0676_
*717 _0677_
*718 _0678_
*719 _0679_
*720 _0680_
*721 _0681_
*722 _0682_
*723 _0683_
*724 _0684_
*725 _0685_
*726 _0686_
*727 _0687_
*728 _0688_
*729 _0689_
*730 _0690_
*731 _0691_
*732 _0692_
*733 _0693_
*734 _0694_
*735 _0695_
*736 _0696_
*737 _0697_
*738 _0698_
*739 _0699_
*740 _0700_
*741 _0701_
*742 _0702_
*743 _0703_
*744 _0704_
*745 _0705_
*746 _0706_
*747 _0707_
*748 _0708_
*749 _0709_
*750 _0710_
*751 _0711_
*752 _0712_
*753 _0713_
*754 _0714_
*755 _0715_
*756 _0716_
*757 _0717_
*758 _0718_
*759 _0719_
*760 _0720_
*761 _0721_
*762 _0722_
*763 _0723_
*764 _0724_
*765 _0725_
*766 _0726_
*767 _0727_
*768 _0728_
*769 _0729_
*770 _0730_
*771 _0731_
*772 _0732_
*773 _0733_
*774 _0734_
*775 _0735_
*776 _0736_
*777 _0737_
*778 _0738_
*779 _0739_
*780 _0740_
*781 _0741_
*782 _0742_
*783 _0743_
*784 _0744_
*785 _0745_
*786 _0746_
*787 _0747_
*788 _0748_
*789 _0749_
*790 _0750_
*791 _0751_
*792 _0752_
*793 _0753_
*794 _0754_
*795 _0755_
*796 _0756_
*797 _0757_
*798 _0758_
*799 _0759_
*800 _0760_
*801 _0761_
*802 _0762_
*803 _0763_
*804 _0764_
*805 _0765_
*806 _0766_
*807 _0767_
*808 _0768_
*809 _0769_
*810 _0770_
*811 _0771_
*812 _0772_
*813 _0773_
*814 _0774_
*815 _0775_
*816 _0776_
*817 _0777_
*818 _0778_
*819 _0779_
*820 _0780_
*821 _0781_
*822 _0782_
*823 _0783_
*824 _0784_
*825 _0785_
*826 _0786_
*827 _0787_
*828 _0788_
*829 _0789_
*830 _0790_
*831 _0791_
*832 _0792_
*833 _0793_
*834 _0794_
*835 _0795_
*836 _0796_
*837 _0797_
*838 _0798_
*839 _0799_
*840 _0800_
*841 _0801_
*842 _0802_
*843 _0803_
*844 _0804_
*845 _0805_
*846 _0806_
*847 _0807_
*848 _0808_
*849 _0809_
*850 _0810_
*851 _0811_
*852 _0812_
*853 _0813_
*854 _0814_
*855 _0815_
*856 _0816_
*857 _0817_
*858 _0818_
*859 _0819_
*860 _0820_
*861 _0821_
*862 _0822_
*863 _0823_
*864 _0824_
*865 _0825_
*866 _0826_
*867 _0827_
*868 _0828_
*869 _0829_
*870 _0830_
*871 _0831_
*872 _0832_
*873 _0833_
*874 _0834_
*875 _0835_
*876 _0836_
*877 _0837_
*878 _0838_
*879 _0839_
*880 _0840_
*881 _0841_
*882 _0842_
*883 _0843_
*884 _0844_
*885 _0845_
*886 _0846_
*887 _0847_
*888 _0848_
*889 _0849_
*890 _0850_
*891 _0851_
*892 _0852_
*893 _0853_
*894 _0854_
*895 _0855_
*896 _0856_
*897 _0857_
*898 _0858_
*899 _0859_
*900 _0860_
*901 _0861_
*902 _0862_
*903 _0863_
*904 _0864_
*905 _0865_
*906 _0866_
*907 _0867_
*908 _0868_
*909 _0869_
*910 _0870_
*911 _0871_
*912 _0872_
*913 _0873_
*914 _0874_
*915 _0875_
*916 _0876_
*917 _0877_
*918 _0878_
*919 _0879_
*920 _0880_
*921 _0881_
*922 _0882_
*923 _0883_
*924 _0884_
*925 _0885_
*926 _0886_
*927 _0887_
*928 _0888_
*929 _0889_
*930 _0890_
*931 _0891_
*932 _0892_
*933 _0893_
*934 _0894_
*935 _0895_
*936 _0896_
*937 _0897_
*938 _0898_
*939 _0899_
*940 _0900_
*941 _0901_
*942 _0902_
*943 _0903_
*944 _0904_
*945 _0905_
*946 _0906_
*947 _0907_
*948 _0908_
*949 _0909_
*950 _0910_
*951 _0911_
*952 _0912_
*953 _0913_
*954 _0914_
*955 _0915_
*956 _0916_
*957 _0917_
*958 _0918_
*959 _0919_
*960 _0920_
*961 _0921_
*962 _0922_
*963 _0923_
*964 _0924_
*965 _0925_
*966 _0926_
*967 _0927_
*968 _0928_
*969 _0929_
*970 _0930_
*971 _0931_
*972 _0932_
*973 _0933_
*974 _0934_
*975 _0935_
*976 _0936_
*977 _0937_
*978 _0938_
*979 _0939_
*980 _0940_
*981 _0941_
*982 _0942_
*983 _0943_
*984 _0944_
*985 _0945_
*986 _0946_
*987 _0947_
*988 _0948_
*989 _0949_
*990 _0950_
*991 _0951_
*992 _0952_
*993 _0953_
*994 _0954_
*995 _0955_
*996 _0956_
*997 _0957_
*998 _0958_
*999 _0959_
*1000 _0960_
*1001 _0961_
*1002 _0962_
*1003 _0963_
*1004 _0964_
*1005 _0965_
*1006 _0966_
*1007 _0967_
*1008 _0968_
*1009 _0969_
*1010 _0970_
*1011 _0971_
*1012 _0972_
*1013 _0973_
*1014 _0974_
*1015 _0975_
*1016 _0976_
*1017 _0977_
*1018 _0978_
*1019 _0979_
*1020 _0980_
*1021 _0981_
*1022 _0982_
*1023 _0983_
*1024 _0984_
*1025 _0985_
*1026 _0986_
*1027 _0987_
*1028 _0988_
*1029 _0989_
*1030 _0990_
*1031 _0991_
*1032 _0992_
*1033 _0993_
*1034 _0994_
*1035 _0995_
*1036 _0996_
*1037 _0997_
*1038 _0998_
*1039 _0999_
*1040 _1000_
*1041 _1001_
*1042 _1002_
*1043 _1003_
*1044 _1004_
*1045 _1005_
*1046 _1006_
*1047 _1007_
*1048 _1008_
*1049 _1009_
*1050 _1010_
*1051 _1011_
*1052 _1012_
*1053 _1013_
*1054 _1014_
*1055 _1015_
*1056 _1016_
*1057 _1017_
*1058 _1018_
*1059 _1019_
*1060 _1020_
*1061 _1021_
*1062 _1022_
*1063 _1023_
*1064 _1024_
*1065 _1025_
*1066 _1026_
*1067 _1027_
*1068 _1028_
*1069 _1029_
*1070 _1030_
*1071 _1031_
*1072 _1032_
*1073 _1033_
*1074 _1034_
*1075 _1035_
*1076 _1036_
*1077 _1037_
*1078 _1038_
*1079 _1039_
*1080 _1040_
*1081 _1041_
*1082 _1042_
*1083 _1043_
*1084 _1044_
*1085 _1045_
*1086 _1046_
*1087 _1047_
*1088 _1048_
*1089 _1049_
*1090 _1050_
*1091 _1051_
*1092 _1052_
*1093 _1053_
*1094 _1054_
*1095 _1055_
*1096 _1056_
*1097 _1057_
*1098 _1058_
*1099 _1059_
*1100 _1060_
*1101 _1061_
*1102 _1062_
*1103 _1063_
*1104 _1064_
*1105 _1065_
*1106 _1066_
*1107 _1067_
*1108 _1068_
*1109 _1069_
*1110 _1070_
*1111 _1071_
*1112 _1072_
*1113 _1073_
*1114 _1074_
*1115 _1075_
*1116 _1076_
*1117 _1077_
*1118 _1078_
*1119 _1079_
*1120 _1080_
*1121 _1081_
*1122 _1082_
*1123 _1083_
*1124 _1084_
*1125 _1085_
*1126 _1086_
*1127 _1087_
*1128 _1088_
*1129 _1089_
*1130 _1090_
*1131 _1091_
*1132 _1092_
*1133 _1093_
*1134 _1094_
*1135 _1095_
*1136 _1096_
*1137 _1097_
*1138 _1098_
*1139 _1099_
*1140 _1100_
*1141 _1101_
*1142 _1102_
*1143 _1103_
*1144 _1104_
*1145 _1105_
*1146 _1106_
*1147 _1107_
*1148 _1108_
*1149 _1109_
*1150 _1110_
*1151 _1111_
*1152 _1112_
*1153 buffer_cs_in\[0\]
*1154 buffer_cs_in\[1\]
*1155 buffer_cs_in\[2\]
*1156 buffer_cs_in\[3\]
*1157 buffer_cs_out\[3\]
*1158 clknet_0_ui_in[0]
*1159 clknet_4_0_0_ui_in[0]
*1160 clknet_4_10_0_ui_in[0]
*1161 clknet_4_11_0_ui_in[0]
*1162 clknet_4_12_0_ui_in[0]
*1163 clknet_4_13_0_ui_in[0]
*1164 clknet_4_14_0_ui_in[0]
*1165 clknet_4_15_0_ui_in[0]
*1166 clknet_4_1_0_ui_in[0]
*1167 clknet_4_2_0_ui_in[0]
*1168 clknet_4_3_0_ui_in[0]
*1169 clknet_4_4_0_ui_in[0]
*1170 clknet_4_5_0_ui_in[0]
*1171 clknet_4_6_0_ui_in[0]
*1172 clknet_4_7_0_ui_in[0]
*1173 clknet_4_8_0_ui_in[0]
*1174 clknet_4_9_0_ui_in[0]
*1175 i_spi\.bad_cmd
*1176 i_spi\.buffered_rosc_out\[0\]
*1177 i_spi\.buffered_rosc_out\[1\]
*1178 i_spi\.buffered_rosc_out\[2\]
*1179 i_spi\.buffered_rosc_out\[3\]
*1180 i_spi\.byte_out\[0\]
*1181 i_spi\.byte_out\[1\]
*1182 i_spi\.byte_out\[2\]
*1183 i_spi\.byte_out\[3\]
*1184 i_spi\.byte_out\[4\]
*1185 i_spi\.byte_out\[5\]
*1186 i_spi\.byte_out\[6\]
*1187 i_spi\.byte_out\[7\]
*1188 i_spi\.cmd\[0\]
*1189 i_spi\.cmd\[10\]
*1190 i_spi\.cmd\[11\]
*1191 i_spi\.cmd\[12\]
*1192 i_spi\.cmd\[13\]
*1193 i_spi\.cmd\[14\]
*1194 i_spi\.cmd\[15\]
*1195 i_spi\.cmd\[16\]
*1196 i_spi\.cmd\[17\]
*1197 i_spi\.cmd\[18\]
*1198 i_spi\.cmd\[19\]
*1199 i_spi\.cmd\[1\]
*1200 i_spi\.cmd\[20\]
*1201 i_spi\.cmd\[21\]
*1202 i_spi\.cmd\[22\]
*1203 i_spi\.cmd\[23\]
*1204 i_spi\.cmd\[24\]
*1205 i_spi\.cmd\[25\]
*1206 i_spi\.cmd\[26\]
*1207 i_spi\.cmd\[27\]
*1208 i_spi\.cmd\[28\]
*1209 i_spi\.cmd\[29\]
*1210 i_spi\.cmd\[2\]
*1211 i_spi\.cmd\[30\]
*1212 i_spi\.cmd\[3\]
*1213 i_spi\.cmd\[4\]
*1214 i_spi\.cmd\[5\]
*1215 i_spi\.cmd\[6\]
*1216 i_spi\.cmd\[7\]
*1217 i_spi\.cmd\[8\]
*1218 i_spi\.cmd\[9\]
*1219 i_spi\.data\[0\]\[0\]
*1220 i_spi\.data\[0\]\[1\]
*1221 i_spi\.data\[0\]\[2\]
*1222 i_spi\.data\[0\]\[3\]
*1223 i_spi\.data\[0\]\[4\]
*1224 i_spi\.data\[0\]\[5\]
*1225 i_spi\.data\[0\]\[6\]
*1226 i_spi\.data\[0\]\[7\]
*1227 i_spi\.data\[1\]\[0\]
*1228 i_spi\.data\[1\]\[1\]
*1229 i_spi\.data\[1\]\[2\]
*1230 i_spi\.data\[1\]\[3\]
*1231 i_spi\.data\[1\]\[4\]
*1232 i_spi\.data\[1\]\[5\]
*1233 i_spi\.data\[1\]\[6\]
*1234 i_spi\.data\[1\]\[7\]
*1235 i_spi\.data\[2\]\[0\]
*1236 i_spi\.data\[2\]\[1\]
*1237 i_spi\.data\[2\]\[2\]
*1238 i_spi\.data\[2\]\[3\]
*1239 i_spi\.data\[2\]\[4\]
*1240 i_spi\.data\[2\]\[5\]
*1241 i_spi\.data\[2\]\[6\]
*1242 i_spi\.data\[2\]\[7\]
*1243 i_spi\.data\[3\]\[0\]
*1244 i_spi\.data\[3\]\[1\]
*1245 i_spi\.data\[3\]\[2\]
*1246 i_spi\.data\[3\]\[3\]
*1247 i_spi\.data\[3\]\[4\]
*1248 i_spi\.data\[3\]\[5\]
*1249 i_spi\.data\[3\]\[6\]
*1250 i_spi\.data\[3\]\[7\]
*1251 i_spi\.data\[4\]\[0\]
*1252 i_spi\.data\[4\]\[1\]
*1253 i_spi\.data\[4\]\[2\]
*1254 i_spi\.data\[4\]\[3\]
*1255 i_spi\.data\[4\]\[4\]
*1256 i_spi\.data\[4\]\[5\]
*1257 i_spi\.data\[4\]\[6\]
*1258 i_spi\.data\[4\]\[7\]
*1259 i_spi\.data\[5\]\[0\]
*1260 i_spi\.data\[5\]\[1\]
*1261 i_spi\.data\[5\]\[2\]
*1262 i_spi\.data\[5\]\[3\]
*1263 i_spi\.data\[5\]\[4\]
*1264 i_spi\.data\[5\]\[5\]
*1265 i_spi\.data\[5\]\[6\]
*1266 i_spi\.data\[5\]\[7\]
*1267 i_spi\.data\[6\]\[0\]
*1268 i_spi\.data\[6\]\[1\]
*1269 i_spi\.data\[6\]\[2\]
*1270 i_spi\.data\[6\]\[3\]
*1271 i_spi\.data\[6\]\[4\]
*1272 i_spi\.data\[6\]\[5\]
*1273 i_spi\.data\[6\]\[6\]
*1274 i_spi\.data\[6\]\[7\]
*1275 i_spi\.data\[7\]\[0\]
*1276 i_spi\.data\[7\]\[1\]
*1277 i_spi\.data\[7\]\[2\]
*1278 i_spi\.data\[7\]\[3\]
*1279 i_spi\.data\[7\]\[4\]
*1280 i_spi\.data\[7\]\[5\]
*1281 i_spi\.data\[7\]\[6\]
*1282 i_spi\.data\[7\]\[7\]
*1283 i_spi\.data_out_bits\[0\]
*1284 i_spi\.data_out_bits\[1\]
*1285 i_spi\.delay
*1286 i_spi\.next_start_count\[0\]
*1287 i_spi\.next_start_count\[1\]
*1288 i_spi\.next_start_count\[2\]
*1289 i_spi\.next_start_count\[3\]
*1290 i_spi\.next_start_count\[4\]
*1291 i_spi\.q_data_out\[0\]
*1292 i_spi\.q_data_out\[1\]
*1293 i_spi\.q_data_out\[2\]
*1294 i_spi\.q_data_out\[3\]
*1295 i_spi\.quad
*1296 i_spi\.reading
*1297 i_spi\.rosc\.c\[0\]
*1298 i_spi\.rosc\.c\[10\]
*1299 i_spi\.rosc\.c\[1\]
*1300 i_spi\.rosc\.c\[2\]
*1301 i_spi\.rosc\.c\[3\]
*1302 i_spi\.rosc\.c\[4\]
*1303 i_spi\.rosc\.c\[5\]
*1304 i_spi\.rosc\.c\[6\]
*1305 i_spi\.rosc\.c\[7\]
*1306 i_spi\.rosc\.c\[8\]
*1307 i_spi\.rosc\.c\[9\]
*1308 i_spi\.rosc\.clk_div\[0\]
*1309 i_spi\.rosc\.clk_div\[1\]
*1310 i_spi\.rosc\.clk_div\[2\]
*1311 i_spi\.rosc\.clk_div\[3\]
*1312 i_spi\.rosc\.clk_div\[4\]
*1313 i_spi\.start_count\[0\]
*1314 i_spi\.start_count\[1\]
*1315 i_spi\.start_count\[2\]
*1316 i_spi\.start_count\[3\]
*1317 i_spi\.start_count\[4\]
*1318 i_spi\.writing
*1319 net1
*1320 net10
*1321 net11
*1322 net12
*1323 net13
*1324 net18
*1325 net19
*1326 net2
*1327 net20
*1328 net21
*1329 net22
*1330 net23
*1331 net24
*1332 net25
*1333 net26
*1334 net27
*1335 net28
*1336 net29
*1337 net3
*1338 net30
*1339 net31
*1340 net32
*1341 net33
*1342 net34
*1343 net35
*1344 net36
*1345 net37
*1346 net38
*1347 net39
*1348 net4
*1349 net40
*1350 net41
*1351 net42
*1352 net43
*1353 net44
*1354 net45
*1355 net46
*1356 net47
*1357 net48
*1358 net49
*1359 net5
*1360 net50
*1361 net51
*1362 net52
*1363 net53
*1364 net54
*1365 net55
*1366 net56
*1367 net57
*1368 net58
*1369 net59
*1370 net6
*1371 net60
*1372 net61
*1373 net62
*1374 net63
*1375 net64
*1376 net65
*1377 net66
*1378 net67
*1379 net68
*1380 net69
*1381 net7
*1382 net70
*1383 net71
*1384 net72
*1385 net73
*1386 net74
*1387 net75
*1388 net76
*1389 net77
*1390 net78
*1391 net79
*1392 net8
*1393 net9
*1394 ANTENNA_1
*1395 ANTENNA_10
*1396 ANTENNA_11
*1397 ANTENNA_12
*1398 ANTENNA_13
*1399 ANTENNA_14
*1400 ANTENNA_15
*1401 ANTENNA_16
*1402 ANTENNA_17
*1403 ANTENNA_18
*1404 ANTENNA_19
*1405 ANTENNA_2
*1406 ANTENNA_20
*1407 ANTENNA_3
*1408 ANTENNA_4
*1409 ANTENNA_5
*1410 ANTENNA_6
*1411 ANTENNA_7
*1412 ANTENNA_8
*1413 ANTENNA_9
*1414 FILLER_0_0_139
*1415 FILLER_0_0_141
*1416 FILLER_0_0_15
*1417 FILLER_0_0_153
*1418 FILLER_0_0_163
*1419 FILLER_0_0_167
*1420 FILLER_0_0_169
*1421 FILLER_0_0_173
*1422 FILLER_0_0_185
*1423 FILLER_0_0_193
*1424 FILLER_0_0_206
*1425 FILLER_0_0_217
*1426 FILLER_0_0_223
*1427 FILLER_0_0_225
*1428 FILLER_0_0_237
*1429 FILLER_0_0_249
*1430 FILLER_0_0_258
*1431 FILLER_0_0_266
*1432 FILLER_0_0_27
*1433 FILLER_0_0_270
*1434 FILLER_0_0_278
*1435 FILLER_0_0_281
*1436 FILLER_0_0_29
*1437 FILLER_0_0_294
*1438 FILLER_0_0_3
*1439 FILLER_0_0_306
*1440 FILLER_0_0_309
*1441 FILLER_0_0_321
*1442 FILLER_0_0_333
*1443 FILLER_0_0_337
*1444 FILLER_0_0_349
*1445 FILLER_0_0_41
*1446 FILLER_0_0_53
*1447 FILLER_0_0_57
*1448 FILLER_0_0_69
*1449 FILLER_0_0_81
*1450 FILLER_0_0_85
*1451 FILLER_0_0_98
*1452 FILLER_0_10_108
*1453 FILLER_0_10_131
*1454 FILLER_0_10_139
*1455 FILLER_0_10_141
*1456 FILLER_0_10_15
*1457 FILLER_0_10_157
*1458 FILLER_0_10_172
*1459 FILLER_0_10_190
*1460 FILLER_0_10_197
*1461 FILLER_0_10_205
*1462 FILLER_0_10_217
*1463 FILLER_0_10_224
*1464 FILLER_0_10_232
*1465 FILLER_0_10_246
*1466 FILLER_0_10_253
*1467 FILLER_0_10_265
*1468 FILLER_0_10_27
*1469 FILLER_0_10_271
*1470 FILLER_0_10_288
*1471 FILLER_0_10_3
*1472 FILLER_0_10_303
*1473 FILLER_0_10_307
*1474 FILLER_0_10_309
*1475 FILLER_0_10_316
*1476 FILLER_0_10_324
*1477 FILLER_0_10_331
*1478 FILLER_0_10_349
*1479 FILLER_0_10_35
*1480 FILLER_0_10_43
*1481 FILLER_0_10_57
*1482 FILLER_0_10_67
*1483 FILLER_0_10_75
*1484 FILLER_0_10_88
*1485 FILLER_0_10_94
*1486 FILLER_0_11_105
*1487 FILLER_0_11_111
*1488 FILLER_0_11_122
*1489 FILLER_0_11_133
*1490 FILLER_0_11_141
*1491 FILLER_0_11_152
*1492 FILLER_0_11_164
*1493 FILLER_0_11_169
*1494 FILLER_0_11_181
*1495 FILLER_0_11_193
*1496 FILLER_0_11_212
*1497 FILLER_0_11_22
*1498 FILLER_0_11_220
*1499 FILLER_0_11_233
*1500 FILLER_0_11_250
*1501 FILLER_0_11_256
*1502 FILLER_0_11_263
*1503 FILLER_0_11_281
*1504 FILLER_0_11_289
*1505 FILLER_0_11_299
*1506 FILLER_0_11_3
*1507 FILLER_0_11_30
*1508 FILLER_0_11_334
*1509 FILLER_0_11_349
*1510 FILLER_0_11_39
*1511 FILLER_0_11_51
*1512 FILLER_0_11_55
*1513 FILLER_0_11_57
*1514 FILLER_0_11_64
*1515 FILLER_0_11_72
*1516 FILLER_0_11_80
*1517 FILLER_0_11_9
*1518 FILLER_0_11_92
*1519 FILLER_0_12_112
*1520 FILLER_0_12_116
*1521 FILLER_0_12_120
*1522 FILLER_0_12_126
*1523 FILLER_0_12_134
*1524 FILLER_0_12_141
*1525 FILLER_0_12_149
*1526 FILLER_0_12_15
*1527 FILLER_0_12_168
*1528 FILLER_0_12_178
*1529 FILLER_0_12_186
*1530 FILLER_0_12_194
*1531 FILLER_0_12_197
*1532 FILLER_0_12_209
*1533 FILLER_0_12_229
*1534 FILLER_0_12_237
*1535 FILLER_0_12_251
*1536 FILLER_0_12_253
*1537 FILLER_0_12_261
*1538 FILLER_0_12_273
*1539 FILLER_0_12_281
*1540 FILLER_0_12_289
*1541 FILLER_0_12_295
*1542 FILLER_0_12_3
*1543 FILLER_0_12_300
*1544 FILLER_0_12_318
*1545 FILLER_0_12_32
*1546 FILLER_0_12_322
*1547 FILLER_0_12_334
*1548 FILLER_0_12_350
*1549 FILLER_0_12_39
*1550 FILLER_0_12_51
*1551 FILLER_0_12_61
*1552 FILLER_0_12_66
*1553 FILLER_0_12_78
*1554 FILLER_0_12_99
*1555 FILLER_0_13_101
*1556 FILLER_0_13_109
*1557 FILLER_0_13_113
*1558 FILLER_0_13_120
*1559 FILLER_0_13_136
*1560 FILLER_0_13_149
*1561 FILLER_0_13_153
*1562 FILLER_0_13_160
*1563 FILLER_0_13_169
*1564 FILLER_0_13_19
*1565 FILLER_0_13_193
*1566 FILLER_0_13_212
*1567 FILLER_0_13_23
*1568 FILLER_0_13_235
*1569 FILLER_0_13_254
*1570 FILLER_0_13_266
*1571 FILLER_0_13_278
*1572 FILLER_0_13_312
*1573 FILLER_0_13_321
*1574 FILLER_0_13_335
*1575 FILLER_0_13_337
*1576 FILLER_0_13_349
*1577 FILLER_0_13_39
*1578 FILLER_0_13_51
*1579 FILLER_0_13_55
*1580 FILLER_0_13_57
*1581 FILLER_0_13_6
*1582 FILLER_0_13_63
*1583 FILLER_0_13_77
*1584 FILLER_0_13_83
*1585 FILLER_0_13_87
*1586 FILLER_0_14_106
*1587 FILLER_0_14_117
*1588 FILLER_0_14_129
*1589 FILLER_0_14_141
*1590 FILLER_0_14_149
*1591 FILLER_0_14_157
*1592 FILLER_0_14_171
*1593 FILLER_0_14_179
*1594 FILLER_0_14_186
*1595 FILLER_0_14_194
*1596 FILLER_0_14_197
*1597 FILLER_0_14_201
*1598 FILLER_0_14_219
*1599 FILLER_0_14_236
*1600 FILLER_0_14_247
*1601 FILLER_0_14_251
*1602 FILLER_0_14_26
*1603 FILLER_0_14_261
*1604 FILLER_0_14_270
*1605 FILLER_0_14_276
*1606 FILLER_0_14_280
*1607 FILLER_0_14_285
*1608 FILLER_0_14_306
*1609 FILLER_0_14_322
*1610 FILLER_0_14_350
*1611 FILLER_0_14_42
*1612 FILLER_0_14_52
*1613 FILLER_0_14_60
*1614 FILLER_0_14_70
*1615 FILLER_0_14_82
*1616 FILLER_0_14_85
*1617 FILLER_0_14_99
*1618 FILLER_0_15_101
*1619 FILLER_0_15_113
*1620 FILLER_0_15_123
*1621 FILLER_0_15_139
*1622 FILLER_0_15_151
*1623 FILLER_0_15_155
*1624 FILLER_0_15_163
*1625 FILLER_0_15_167
*1626 FILLER_0_15_177
*1627 FILLER_0_15_185
*1628 FILLER_0_15_201
*1629 FILLER_0_15_207
*1630 FILLER_0_15_222
*1631 FILLER_0_15_231
*1632 FILLER_0_15_243
*1633 FILLER_0_15_251
*1634 FILLER_0_15_278
*1635 FILLER_0_15_281
*1636 FILLER_0_15_297
*1637 FILLER_0_15_3
*1638 FILLER_0_15_318
*1639 FILLER_0_15_33
*1640 FILLER_0_15_57
*1641 FILLER_0_15_65
*1642 FILLER_0_15_74
*1643 FILLER_0_15_84
*1644 FILLER_0_16_124
*1645 FILLER_0_16_13
*1646 FILLER_0_16_130
*1647 FILLER_0_16_138
*1648 FILLER_0_16_147
*1649 FILLER_0_16_160
*1650 FILLER_0_16_170
*1651 FILLER_0_16_181
*1652 FILLER_0_16_193
*1653 FILLER_0_16_204
*1654 FILLER_0_16_224
*1655 FILLER_0_16_23
*1656 FILLER_0_16_238
*1657 FILLER_0_16_249
*1658 FILLER_0_16_262
*1659 FILLER_0_16_27
*1660 FILLER_0_16_280
*1661 FILLER_0_16_306
*1662 FILLER_0_16_329
*1663 FILLER_0_16_350
*1664 FILLER_0_16_50
*1665 FILLER_0_16_83
*1666 FILLER_0_16_89
*1667 FILLER_0_16_9
*1668 FILLER_0_17_111
*1669 FILLER_0_17_113
*1670 FILLER_0_17_129
*1671 FILLER_0_17_13
*1672 FILLER_0_17_146
*1673 FILLER_0_17_164
*1674 FILLER_0_17_169
*1675 FILLER_0_17_187
*1676 FILLER_0_17_203
*1677 FILLER_0_17_221
*1678 FILLER_0_17_225
*1679 FILLER_0_17_238
*1680 FILLER_0_17_24
*1681 FILLER_0_17_265
*1682 FILLER_0_17_281
*1683 FILLER_0_17_318
*1684 FILLER_0_17_327
*1685 FILLER_0_17_337
*1686 FILLER_0_17_349
*1687 FILLER_0_17_39
*1688 FILLER_0_17_65
*1689 FILLER_0_17_9
*1690 FILLER_0_17_99
*1691 FILLER_0_18_116
*1692 FILLER_0_18_130
*1693 FILLER_0_18_138
*1694 FILLER_0_18_141
*1695 FILLER_0_18_157
*1696 FILLER_0_18_161
*1697 FILLER_0_18_166
*1698 FILLER_0_18_175
*1699 FILLER_0_18_188
*1700 FILLER_0_18_194
*1701 FILLER_0_18_221
*1702 FILLER_0_18_23
*1703 FILLER_0_18_236
*1704 FILLER_0_18_244
*1705 FILLER_0_18_253
*1706 FILLER_0_18_325
*1707 FILLER_0_18_350
*1708 FILLER_0_18_41
*1709 FILLER_0_18_59
*1710 FILLER_0_18_80
*1711 FILLER_0_18_85
*1712 FILLER_0_19_106
*1713 FILLER_0_19_113
*1714 FILLER_0_19_135
*1715 FILLER_0_19_147
*1716 FILLER_0_19_169
*1717 FILLER_0_19_187
*1718 FILLER_0_19_196
*1719 FILLER_0_19_219
*1720 FILLER_0_19_297
*1721 FILLER_0_19_316
*1722 FILLER_0_19_326
*1723 FILLER_0_19_349
*1724 FILLER_0_19_48
*1725 FILLER_0_19_70
*1726 FILLER_0_19_75
*1727 FILLER_0_19_84
*1728 FILLER_0_19_9
*1729 FILLER_0_19_94
*1730 FILLER_0_1_125
*1731 FILLER_0_1_15
*1732 FILLER_0_1_157
*1733 FILLER_0_1_165
*1734 FILLER_0_1_185
*1735 FILLER_0_1_199
*1736 FILLER_0_1_225
*1737 FILLER_0_1_233
*1738 FILLER_0_1_241
*1739 FILLER_0_1_254
*1740 FILLER_0_1_266
*1741 FILLER_0_1_27
*1742 FILLER_0_1_293
*1743 FILLER_0_1_3
*1744 FILLER_0_1_302
*1745 FILLER_0_1_309
*1746 FILLER_0_1_321
*1747 FILLER_0_1_333
*1748 FILLER_0_1_337
*1749 FILLER_0_1_349
*1750 FILLER_0_1_39
*1751 FILLER_0_1_46
*1752 FILLER_0_1_54
*1753 FILLER_0_1_62
*1754 FILLER_0_1_74
*1755 FILLER_0_1_85
*1756 FILLER_0_1_97
*1757 FILLER_0_20_119
*1758 FILLER_0_20_134
*1759 FILLER_0_20_141
*1760 FILLER_0_20_162
*1761 FILLER_0_20_166
*1762 FILLER_0_20_189
*1763 FILLER_0_20_204
*1764 FILLER_0_20_225
*1765 FILLER_0_20_24
*1766 FILLER_0_20_244
*1767 FILLER_0_20_269
*1768 FILLER_0_20_290
*1769 FILLER_0_20_307
*1770 FILLER_0_20_312
*1771 FILLER_0_20_333
*1772 FILLER_0_20_49
*1773 FILLER_0_20_79
*1774 FILLER_0_20_93
*1775 FILLER_0_20_97
*1776 FILLER_0_21_104
*1777 FILLER_0_21_108
*1778 FILLER_0_21_120
*1779 FILLER_0_21_130
*1780 FILLER_0_21_136
*1781 FILLER_0_21_140
*1782 FILLER_0_21_15
*1783 FILLER_0_21_186
*1784 FILLER_0_21_222
*1785 FILLER_0_21_225
*1786 FILLER_0_21_279
*1787 FILLER_0_21_281
*1788 FILLER_0_21_294
*1789 FILLER_0_21_312
*1790 FILLER_0_21_334
*1791 FILLER_0_21_350
*1792 FILLER_0_21_55
*1793 FILLER_0_21_60
*1794 FILLER_0_21_81
*1795 FILLER_0_22_106
*1796 FILLER_0_22_135
*1797 FILLER_0_22_139
*1798 FILLER_0_22_193
*1799 FILLER_0_22_306
*1800 FILLER_0_22_333
*1801 FILLER_0_22_34
*1802 FILLER_0_22_350
*1803 FILLER_0_22_44
*1804 FILLER_0_22_74
*1805 FILLER_0_22_82
*1806 FILLER_0_22_85
*1807 FILLER_0_23_121
*1808 FILLER_0_23_125
*1809 FILLER_0_23_167
*1810 FILLER_0_23_169
*1811 FILLER_0_23_181
*1812 FILLER_0_23_198
*1813 FILLER_0_23_202
*1814 FILLER_0_23_286
*1815 FILLER_0_23_335
*1816 FILLER_0_23_54
*1817 FILLER_0_23_89
*1818 FILLER_0_24_109
*1819 FILLER_0_24_113
*1820 FILLER_0_24_120
*1821 FILLER_0_24_195
*1822 FILLER_0_24_205
*1823 FILLER_0_24_224
*1824 FILLER_0_24_27
*1825 FILLER_0_24_3
*1826 FILLER_0_24_306
*1827 FILLER_0_24_321
*1828 FILLER_0_24_41
*1829 FILLER_0_24_65
*1830 FILLER_0_25_110
*1831 FILLER_0_25_144
*1832 FILLER_0_25_159
*1833 FILLER_0_25_166
*1834 FILLER_0_25_178
*1835 FILLER_0_25_198
*1836 FILLER_0_25_228
*1837 FILLER_0_25_241
*1838 FILLER_0_25_30
*1839 FILLER_0_25_335
*1840 FILLER_0_25_38
*1841 FILLER_0_25_46
*1842 FILLER_0_25_92
*1843 FILLER_0_26_110
*1844 FILLER_0_26_138
*1845 FILLER_0_26_185
*1846 FILLER_0_26_197
*1847 FILLER_0_26_280
*1848 FILLER_0_26_3
*1849 FILLER_0_26_324
*1850 FILLER_0_26_53
*1851 FILLER_0_26_85
*1852 FILLER_0_27_103
*1853 FILLER_0_27_113
*1854 FILLER_0_27_213
*1855 FILLER_0_27_222
*1856 FILLER_0_27_225
*1857 FILLER_0_27_242
*1858 FILLER_0_27_256
*1859 FILLER_0_27_279
*1860 FILLER_0_27_284
*1861 FILLER_0_27_29
*1862 FILLER_0_27_297
*1863 FILLER_0_27_335
*1864 FILLER_0_27_349
*1865 FILLER_0_27_92
*1866 FILLER_0_28_146
*1867 FILLER_0_28_197
*1868 FILLER_0_28_251
*1869 FILLER_0_28_262
*1870 FILLER_0_28_3
*1871 FILLER_0_28_307
*1872 FILLER_0_28_332
*1873 FILLER_0_28_349
*1874 FILLER_0_28_38
*1875 FILLER_0_28_60
*1876 FILLER_0_28_85
*1877 FILLER_0_28_97