*SPEF "ieee 1481-1999"
*DESIGN "tt_um_MichaelBell_spi_peri"
*DATE "11:11:11 Fri 11 11, 1111"
*VENDOR "OpenRCX"
*PROGRAM "Parallel Extraction"
*VERSION "1.0"
*DESIGN_FLOW "NAME_SCOPE LOCAL" "PIN_CAP NONE"
*DIVIDER /
*DELIMITER :
*BUS_DELIMITER []
*T_UNIT 1 NS
*C_UNIT 1 PF
*R_UNIT 1 OHM
*L_UNIT 1 HENRY

*NAME_MAP
*3 clk
*4 ena
*5 rst_n
*6 ui_in[0]
*7 ui_in[1]
*8 ui_in[2]
*9 ui_in[3]
*10 ui_in[4]
*11 ui_in[5]
*12 ui_in[6]
*13 ui_in[7]
*14 uio_in[0]
*15 uio_in[1]
*16 uio_in[2]
*17 uio_in[3]
*18 uio_in[4]
*19 uio_in[5]
*20 uio_in[6]
*21 uio_in[7]
*22 uio_oe[0]
*23 uio_oe[1]
*24 uio_oe[2]
*25 uio_oe[3]
*26 net17
*27 net18
*28 net19
*29 net20
*30 uio_out[0]
*31 uio_out[1]
*32 uio_out[2]
*33 uio_out[3]
*34 uio_out[4]
*35 uio_out[5]
*36 uio_out[6]
*37 uio_out[7]
*38 uo_out[0]
*39 uo_out[1]
*40 uo_out[2]
*41 uo_out[3]
*42 uo_out[4]
*43 uo_out[5]
*44 uo_out[6]
*45 uo_out[7]
*46 _0000_
*47 _0001_
*48 _0002_
*49 _0003_
*50 _0004_
*51 _0005_
*52 _0006_
*53 _0007_
*54 _0008_
*55 _0009_
*56 _0010_
*57 _0011_
*58 _0012_
*59 _0013_
*60 _0014_
*61 _0015_
*62 _0016_
*63 _0017_
*64 _0018_
*65 _0019_
*66 _0020_
*67 _0021_
*68 _0022_
*69 _0023_
*70 _0024_
*71 _0025_
*72 _0026_
*73 _0027_
*74 _0028_
*75 _0029_
*76 _0030_
*77 _0031_
*78 _0032_
*79 _0033_
*80 _0034_
*81 _0035_
*82 _0036_
*83 _0037_
*84 _0038_
*85 _0039_
*86 _0040_
*87 _0041_
*88 _0042_
*89 _0043_
*90 _0044_
*91 _0045_
*92 _0046_
*93 _0047_
*94 _0048_
*95 _0049_
*96 _0050_
*97 _0051_
*98 _0052_
*99 _0053_
*100 _0054_
*101 _0055_
*102 _0056_
*103 _0057_
*104 _0058_
*105 _0059_
*106 _0060_
*107 _0061_
*108 _0066_
*109 _0067_
*110 _0068_
*111 _0069_
*112 _0070_
*113 _0071_
*114 _0072_
*115 _0073_
*116 _0074_
*117 _0075_
*118 _0076_
*119 _0077_
*120 _0078_
*121 _0079_
*122 _0080_
*123 _0081_
*124 _0082_
*125 _0083_
*126 _0084_
*127 _0085_
*128 _0086_
*129 _0087_
*130 _0088_
*131 _0089_
*132 _0090_
*133 _0091_
*134 _0092_
*135 _0093_
*136 _0094_
*137 _0095_
*138 _0096_
*139 _0097_
*140 _0098_
*141 _0099_
*142 _0100_
*143 _0101_
*144 _0102_
*145 _0103_
*146 _0104_
*147 _0105_
*148 _0106_
*149 _0107_
*150 _0108_
*151 _0109_
*152 _0110_
*153 _0111_
*154 _0112_
*155 _0113_
*156 _0114_
*157 _0115_
*158 _0116_
*159 _0117_
*160 _0118_
*161 _0119_
*162 _0120_
*163 _0121_
*164 _0122_
*165 _0123_
*166 _0124_
*167 _0125_
*168 _0126_
*169 _0127_
*170 _0128_
*171 _0129_
*172 _0130_
*173 _0131_
*174 _0132_
*175 _0133_
*176 _0134_
*177 _0135_
*178 _0136_
*179 _0137_
*180 _0138_
*181 _0139_
*182 _0140_
*183 _0141_
*184 _0142_
*185 _0143_
*186 _0144_
*187 _0145_
*188 _0146_
*189 _0147_
*190 _0148_
*191 _0149_
*192 _0150_
*193 _0151_
*194 _0152_
*195 _0153_
*196 _0154_
*197 _0155_
*198 _0156_
*199 _0157_
*200 _0158_
*201 _0159_
*202 _0160_
*203 _0161_
*204 _0162_
*205 _0163_
*206 _0164_
*207 _0165_
*208 _0166_
*209 _0167_
*210 _0168_
*211 _0169_
*212 _0170_
*213 _0171_
*214 _0172_
*215 _0173_
*216 _0174_
*217 _0175_
*218 _0176_
*219 _0177_
*220 _0178_
*221 _0179_
*222 _0180_
*223 _0181_
*224 _0182_
*225 _0183_
*226 _0184_
*227 _0185_
*228 _0186_
*229 _0187_
*230 _0188_
*231 _0189_
*232 _0190_
*233 _0191_
*234 _0192_
*235 _0193_
*236 _0194_
*237 _0195_
*238 _0196_
*239 _0197_
*240 _0198_
*241 _0199_
*242 _0200_
*243 _0201_
*244 _0202_
*245 _0203_
*246 _0204_
*247 _0205_
*248 _0206_
*249 _0207_
*250 _0208_
*251 _0209_
*252 _0210_
*253 _0211_
*254 _0212_
*255 _0213_
*256 _0214_
*257 _0215_
*258 _0216_
*259 _0217_
*260 _0218_
*261 _0219_
*262 _0220_
*263 _0221_
*264 _0222_
*265 _0223_
*266 _0224_
*267 _0225_
*268 _0226_
*269 _0227_
*270 _0228_
*271 _0229_
*272 _0230_
*273 _0231_
*274 _0232_
*275 _0233_
*276 _0234_
*277 _0235_
*278 _0236_
*279 _0237_
*280 _0238_
*281 _0239_
*282 _0240_
*283 _0241_
*284 _0242_
*285 _0243_
*286 _0244_
*287 _0245_
*288 _0246_
*289 _0247_
*290 _0248_
*291 _0249_
*292 _0250_
*293 _0251_
*294 _0252_
*295 _0253_
*296 _0254_
*297 _0255_
*298 _0256_
*299 _0257_
*300 _0258_
*301 _0259_
*302 _0260_
*303 _0261_
*304 _0262_
*305 _0263_
*306 _0264_
*307 _0265_
*308 _0266_
*309 _0267_
*310 _0268_
*311 _0269_
*312 _0270_
*313 _0271_
*314 _0272_
*315 _0273_
*316 _0274_
*317 _0275_
*318 _0276_
*319 _0277_
*320 _0278_
*321 _0279_
*322 _0280_
*323 _0281_
*324 _0282_
*325 _0283_
*326 _0284_
*327 _0285_
*328 _0286_
*329 _0287_
*330 _0288_
*331 _0289_
*332 _0290_
*333 _0291_
*334 _0292_
*335 _0293_
*336 _0294_
*337 _0295_
*338 _0296_
*339 _0297_
*340 _0298_
*341 _0299_
*342 _0300_
*343 _0301_
*344 _0302_
*345 _0303_
*346 _0304_
*347 _0305_
*348 _0306_
*349 _0307_
*350 _0308_
*351 _0309_
*352 _0310_
*353 _0311_
*354 _0312_
*355 _0313_
*356 _0314_
*357 _0315_
*358 _0316_
*359 _0317_
*360 _0318_
*361 _0319_
*362 _0320_
*363 _0321_
*364 _0322_
*365 _0323_
*366 _0324_
*367 _0325_
*368 _0326_
*369 _0327_
*370 _0328_
*371 _0329_
*372 _0330_
*373 _0331_
*374 _0332_
*375 _0333_
*376 _0334_
*377 _0335_
*378 _0336_
*379 _0337_
*380 _0338_
*381 _0339_
*382 _0340_
*383 _0341_
*384 _0342_
*385 _0343_
*386 _0344_
*387 _0345_
*388 _0346_
*389 _0347_
*390 _0348_
*391 _0349_
*392 _0350_
*393 _0351_
*394 _0352_
*395 _0353_
*396 _0354_
*397 _0355_
*398 _0356_
*399 _0357_
*400 _0358_
*401 _0359_
*402 _0360_
*403 _0361_
*404 _0362_
*405 _0363_
*406 _0364_
*407 _0365_
*408 _0366_
*409 _0367_
*410 _0368_
*411 _0369_
*412 _0370_
*413 _0371_
*414 _0372_
*415 _0373_
*416 _0374_
*417 _0375_
*418 _0376_
*419 _0377_
*420 _0378_
*421 _0379_
*422 _0380_
*423 _0381_
*424 _0382_
*425 _0383_
*426 _0384_
*427 _0385_
*428 _0386_
*429 _0387_
*430 _0388_
*431 _0389_
*432 _0390_
*433 _0391_
*434 _0392_
*435 _0393_
*436 _0394_
*437 _0395_
*438 _0396_
*439 _0397_
*440 _0398_
*441 _0399_
*442 _0400_
*443 _0401_
*444 _0402_
*445 _0403_
*446 _0404_
*447 _0405_
*448 _0406_
*449 _0407_
*450 _0408_
*451 _0409_
*452 _0410_
*453 _0411_
*454 _0412_
*455 _0413_
*456 _0414_
*457 _0415_
*458 _0416_
*459 _0417_
*460 _0418_
*461 _0419_
*462 _0420_
*463 _0421_
*464 _0422_
*465 _0423_
*466 _0424_
*467 _0425_
*468 _0426_
*469 _0427_
*470 _0428_
*471 _0429_
*472 _0430_
*473 _0431_
*474 _0432_
*475 _0433_
*476 _0434_
*477 _0435_
*478 _0436_
*479 _0437_
*480 _0438_
*481 _0439_
*482 _0440_
*483 _0441_
*484 _0442_
*485 _0443_
*486 _0444_
*487 _0445_
*488 _0446_
*489 _0447_
*490 _0448_
*491 _0449_
*492 _0450_
*493 _0451_
*494 _0452_
*495 _0453_
*496 _0454_
*497 _0455_
*498 _0456_
*499 _0457_
*500 _0458_
*501 _0459_
*502 _0460_
*503 _0461_
*504 _0462_
*505 _0463_
*506 _0464_
*507 _0465_
*508 _0466_
*509 _0467_
*510 _0468_
*511 _0469_
*512 _0470_
*513 _0471_
*514 _0472_
*515 _0473_
*516 _0474_
*517 _0475_
*518 _0476_
*519 _0477_
*520 _0478_
*521 _0479_
*522 _0480_
*523 _0481_
*524 _0482_
*525 _0483_
*526 _0484_
*527 _0485_
*528 _0486_
*529 _0487_
*530 _0488_
*531 _0489_
*532 _0490_
*533 _0491_
*534 _0492_
*535 _0493_
*536 _0494_
*537 _0495_
*538 _0496_
*539 _0497_
*540 _0498_
*541 _0499_
*542 _0500_
*543 _0501_
*544 _0502_
*545 _0503_
*546 _0504_
*547 _0505_
*548 _0506_
*549 _0507_
*550 _0508_
*551 _0509_
*552 _0510_
*553 _0511_
*554 _0512_
*555 _0513_
*556 _0514_
*557 _0515_
*558 _0516_
*559 _0517_
*560 _0518_
*561 _0519_
*562 _0520_
*563 _0521_
*564 _0522_
*565 _0523_
*566 _0524_
*567 _0525_
*568 _0526_
*569 _0527_
*570 _0528_
*571 _0529_
*572 _0530_
*573 _0531_
*574 _0532_
*575 _0533_
*576 _0534_
*577 _0535_
*578 _0536_
*579 _0537_
*580 _0538_
*581 _0539_
*582 _0540_
*583 _0541_
*584 _0542_
*585 _0543_
*586 _0544_
*587 _0545_
*588 _0546_
*589 _0547_
*590 _0548_
*591 _0549_
*592 _0550_
*593 _0551_
*594 _0552_
*595 _0553_
*596 _0554_
*597 _0555_
*598 _0556_
*599 _0557_
*600 _0558_
*601 _0559_
*602 _0560_
*603 _0561_
*604 _0562_
*605 _0563_
*606 _0564_
*607 _0565_
*608 _0566_
*609 _0567_
*610 _0568_
*611 _0569_
*612 _0570_
*613 _0571_
*614 _0572_
*615 _0573_
*616 _0574_
*617 _0575_
*618 _0576_
*619 _0577_
*620 _0578_
*621 _0579_
*622 _0580_
*623 _0581_
*624 _0582_
*625 _0583_
*626 _0584_
*627 _0585_
*628 _0586_
*629 _0587_
*630 _0588_
*631 _0589_
*632 _0590_
*633 _0591_
*634 _0592_
*635 _0593_
*636 _0594_
*637 _0595_
*638 _0596_
*639 _0597_
*640 _0598_
*641 _0599_
*642 _0600_
*643 _0601_
*644 _0602_
*645 _0603_
*646 _0604_
*647 _0605_
*648 _0606_
*649 _0607_
*650 _0608_
*651 _0609_
*652 _0610_
*653 _0611_
*654 _0612_
*655 _0613_
*656 _0614_
*657 _0615_
*658 _0616_
*659 _0617_
*660 _0618_
*661 _0619_
*662 _0620_
*663 _0621_
*664 _0622_
*665 _0623_
*666 _0624_
*667 _0625_
*668 _0626_
*669 _0627_
*670 _0628_
*671 _0629_
*672 _0630_
*673 _0631_
*674 _0632_
*675 _0633_
*676 _0634_
*677 _0635_
*678 _0636_
*679 _0637_
*680 _0638_
*681 _0639_
*682 _0640_
*683 _0641_
*684 _0642_
*685 _0643_
*686 _0644_
*687 _0645_
*688 _0646_
*689 _0647_
*690 _0648_
*691 _0649_
*692 _0650_
*693 _0651_
*694 _0652_
*695 _0653_
*696 _0654_
*697 _0655_
*698 _0656_
*699 _0657_
*700 _0658_
*701 _0659_
*702 _0660_
*703 _0661_
*704 _0662_
*705 _0663_
*706 _0664_
*707 _0665_
*708 _0666_
*709 _0667_
*710 _0668_
*711 _0669_
*712 _0670_
*713 _0671_
*714 _0672_
*715 _0673_
*716 _0674_
*717 _0675_
*718 _0676_
*719 _0677_
*720 _0678_
*721 _0679_
*722 _0680_
*723 _0681_
*724 _0682_
*725 _0683_
*726 _0684_
*727 _0685_
*728 _0686_
*729 _0687_
*730 _0688_
*731 _0689_
*732 _0690_
*733 _0691_
*734 _0692_
*735 _0693_
*736 _0694_
*737 _0695_
*738 _0696_
*739 _0697_
*740 _0698_
*741 _0699_
*742 _0700_
*743 _0701_
*744 _0702_
*745 _0703_
*746 _0704_
*747 _0705_
*748 _0706_
*749 _0707_
*750 _0708_
*751 _0709_
*752 _0710_
*753 _0711_
*754 _0712_
*755 _0713_
*756 _0714_
*757 _0715_
*758 _0716_
*759 _0717_
*760 _0718_
*761 _0719_
*762 _0720_
*763 _0721_
*764 _0722_
*765 _0723_
*766 _0724_
*767 _0725_
*768 _0726_
*769 _0727_
*770 _0728_
*771 _0729_
*772 _0730_
*773 _0731_
*774 _0732_
*775 _0733_
*776 _0734_
*777 _0735_
*778 _0736_
*779 _0737_
*780 _0738_
*781 _0739_
*782 _0740_
*783 _0741_
*784 _0742_
*785 _0743_
*786 _0744_
*787 _0745_
*788 _0746_
*789 _0747_
*790 _0748_
*791 _0749_
*792 _0750_
*793 _0751_
*794 _0752_
*795 _0753_
*796 _0754_
*797 _0755_
*798 _0756_
*799 _0757_
*800 _0758_
*801 _0759_
*802 _0760_
*803 _0761_
*804 _0762_
*805 _0763_
*806 _0764_
*807 _0765_
*808 _0766_
*809 _0767_
*810 _0768_
*811 _0769_
*812 _0770_
*813 _0771_
*814 _0772_
*815 _0773_
*816 _0774_
*817 _0775_
*818 _0776_
*819 _0777_
*820 _0778_
*821 _0779_
*822 _0780_
*823 _0781_
*824 _0782_
*825 _0783_
*826 _0784_
*827 _0785_
*828 _0786_
*829 _0787_
*830 _0788_
*831 _0789_
*832 _0790_
*833 _0791_
*834 _0792_
*835 _0793_
*836 _0794_
*837 _0795_
*838 _0796_
*839 _0797_
*840 _0798_
*841 _0799_
*842 _0800_
*843 _0801_
*844 _0802_
*845 _0803_
*846 _0804_
*847 _0805_
*848 _0806_
*849 _0807_
*850 _0808_
*851 _0809_
*852 _0810_
*853 _0811_
*854 _0812_
*855 _0813_
*856 _0814_
*857 _0815_
*858 _0816_
*859 _0817_
*860 _0818_
*861 _0819_
*862 _0820_
*863 _0821_
*864 _0822_
*865 _0823_
*866 _0824_
*867 _0825_
*868 _0826_
*869 _0827_
*870 _0828_
*871 _0829_
*872 _0830_
*873 _0831_
*874 _0832_
*875 _0833_
*876 _0834_
*877 _0835_
*878 _0836_
*879 _0837_
*880 _0838_
*881 _0839_
*882 _0840_
*883 _0841_
*884 _0842_
*885 _0843_
*886 _0844_
*887 _0845_
*888 _0846_
*889 _0847_
*890 _0848_
*891 _0849_
*892 _0850_
*893 _0851_
*894 _0852_
*895 _0853_
*896 _0854_
*897 _0855_
*898 _0856_
*899 _0857_
*900 _0858_
*901 _0859_
*902 _0860_
*903 _0861_
*904 _0862_
*905 _0863_
*906 _0864_
*907 _0865_
*908 _0866_
*909 _0867_
*910 _0868_
*911 _0869_
*912 _0870_
*913 _0871_
*914 _0872_
*915 _0873_
*916 _0874_
*917 _0875_
*918 _0876_
*919 _0877_
*920 _0878_
*921 _0879_
*922 _0880_
*923 _0881_
*924 _0882_
*925 _0883_
*926 _0884_
*927 _0885_
*928 _0886_
*929 _0887_
*930 _0888_
*931 _0889_
*932 _0890_
*933 _0891_
*934 _0892_
*935 _0893_
*936 _0894_
*937 _0895_
*938 _0896_
*939 _0897_
*940 _0898_
*941 _0899_
*942 _0900_
*943 _0901_
*944 _0902_
*945 _0903_
*946 _0904_
*947 _0905_
*948 _0906_
*949 _0907_
*950 _0908_
*951 _0909_
*952 _0910_
*953 _0911_
*954 _0912_
*955 _0913_
*956 _0914_
*957 _0915_
*958 _0916_
*959 _0917_
*960 _0918_
*961 _0919_
*962 _0920_
*963 _0921_
*964 _0922_
*965 _0923_
*966 _0924_
*967 _0925_
*968 _0926_
*969 _0927_
*970 _0928_
*971 _0929_
*972 _0930_
*973 _0931_
*974 _0932_
*975 _0933_
*976 _0934_
*977 _0935_
*978 _0936_
*979 _0937_
*980 _0938_
*981 _0939_
*982 _0940_
*983 _0941_
*984 _0942_
*985 _0943_
*986 _0944_
*987 _0945_
*988 _0946_
*989 _0947_
*990 _0948_
*991 _0949_
*992 _0950_
*993 _0951_
*994 _0952_
*995 _0953_
*996 _0954_
*997 _0955_
*998 _0956_
*999 _0957_
*1000 _0958_
*1001 _0959_
*1002 _0960_
*1003 _0961_
*1004 _0962_
*1005 _0963_
*1006 _0964_
*1007 _0965_
*1008 _0966_
*1009 _0967_
*1010 _0968_
*1011 _0969_
*1012 _0970_
*1013 _0971_
*1014 _0972_
*1015 _0973_
*1016 _0974_
*1017 _0975_
*1018 _0976_
*1019 _0977_
*1020 _0978_
*1021 _0979_
*1022 _0980_
*1023 _0981_
*1024 _0982_
*1025 _0983_
*1026 _0984_
*1027 _0985_
*1028 _0986_
*1029 _0987_
*1030 _0988_
*1031 _0989_
*1032 _0990_
*1033 _0991_
*1034 _0992_
*1035 _0993_
*1036 _0994_
*1037 _0995_
*1038 _0996_
*1039 _0997_
*1040 _0998_
*1041 _0999_
*1042 _1000_
*1043 _1001_
*1044 _1002_
*1045 _1003_
*1046 _1004_
*1047 _1005_
*1048 _1006_
*1049 _1007_
*1050 _1008_
*1051 _1009_
*1052 _1010_
*1053 _1011_
*1054 _1012_
*1055 _1013_
*1056 _1014_
*1057 _1015_
*1058 _1016_
*1059 _1017_
*1060 _1018_
*1061 _1019_
*1062 _1020_
*1063 _1021_
*1064 _1022_
*1065 _1023_
*1066 _1024_
*1067 _1025_
*1068 _1026_
*1069 _1027_
*1070 _1028_
*1071 _1029_
*1072 _1030_
*1073 _1031_
*1074 _1032_
*1075 buffer_cs_in\[0\]
*1076 buffer_cs_in\[1\]
*1077 buffer_cs_in\[2\]
*1078 buffer_cs_in\[3\]
*1079 buffer_cs_out\[3\]
*1080 clknet_0_ui_in[0]
*1081 clknet_4_0_0_ui_in[0]
*1082 clknet_4_10_0_ui_in[0]
*1083 clknet_4_11_0_ui_in[0]
*1084 clknet_4_12_0_ui_in[0]
*1085 clknet_4_13_0_ui_in[0]
*1086 clknet_4_14_0_ui_in[0]
*1087 clknet_4_15_0_ui_in[0]
*1088 clknet_4_1_0_ui_in[0]
*1089 clknet_4_2_0_ui_in[0]
*1090 clknet_4_3_0_ui_in[0]
*1091 clknet_4_4_0_ui_in[0]
*1092 clknet_4_5_0_ui_in[0]
*1093 clknet_4_6_0_ui_in[0]
*1094 clknet_4_7_0_ui_in[0]
*1095 clknet_4_8_0_ui_in[0]
*1096 clknet_4_9_0_ui_in[0]
*1097 i_spi\.bad_cmd
*1098 i_spi\.buffered_rosc_out\[0\]
*1099 i_spi\.buffered_rosc_out\[1\]
*1100 i_spi\.buffered_rosc_out\[2\]
*1101 i_spi\.buffered_rosc_out\[3\]
*1102 i_spi\.byte_out\[0\]
*1103 i_spi\.byte_out\[1\]
*1104 i_spi\.byte_out\[2\]
*1105 i_spi\.byte_out\[3\]
*1106 i_spi\.byte_out\[4\]
*1107 i_spi\.byte_out\[5\]
*1108 i_spi\.byte_out\[6\]
*1109 i_spi\.byte_out\[7\]
*1110 i_spi\.cmd\[0\]
*1111 i_spi\.cmd\[10\]
*1112 i_spi\.cmd\[11\]
*1113 i_spi\.cmd\[12\]
*1114 i_spi\.cmd\[13\]
*1115 i_spi\.cmd\[14\]
*1116 i_spi\.cmd\[15\]
*1117 i_spi\.cmd\[16\]
*1118 i_spi\.cmd\[17\]
*1119 i_spi\.cmd\[18\]
*1120 i_spi\.cmd\[19\]
*1121 i_spi\.cmd\[1\]
*1122 i_spi\.cmd\[20\]
*1123 i_spi\.cmd\[21\]
*1124 i_spi\.cmd\[22\]
*1125 i_spi\.cmd\[23\]
*1126 i_spi\.cmd\[24\]
*1127 i_spi\.cmd\[25\]
*1128 i_spi\.cmd\[26\]
*1129 i_spi\.cmd\[27\]
*1130 i_spi\.cmd\[28\]
*1131 i_spi\.cmd\[29\]
*1132 i_spi\.cmd\[2\]
*1133 i_spi\.cmd\[30\]
*1134 i_spi\.cmd\[3\]
*1135 i_spi\.cmd\[4\]
*1136 i_spi\.cmd\[5\]
*1137 i_spi\.cmd\[6\]
*1138 i_spi\.cmd\[7\]
*1139 i_spi\.cmd\[8\]
*1140 i_spi\.cmd\[9\]
*1141 i_spi\.data\[0\]\[0\]
*1142 i_spi\.data\[0\]\[1\]
*1143 i_spi\.data\[0\]\[2\]
*1144 i_spi\.data\[0\]\[3\]
*1145 i_spi\.data\[0\]\[4\]
*1146 i_spi\.data\[0\]\[5\]
*1147 i_spi\.data\[0\]\[6\]
*1148 i_spi\.data\[0\]\[7\]
*1149 i_spi\.data\[1\]\[0\]
*1150 i_spi\.data\[1\]\[1\]
*1151 i_spi\.data\[1\]\[2\]
*1152 i_spi\.data\[1\]\[3\]
*1153 i_spi\.data\[1\]\[4\]
*1154 i_spi\.data\[1\]\[5\]
*1155 i_spi\.data\[1\]\[6\]
*1156 i_spi\.data\[1\]\[7\]
*1157 i_spi\.data\[2\]\[0\]
*1158 i_spi\.data\[2\]\[1\]
*1159 i_spi\.data\[2\]\[2\]
*1160 i_spi\.data\[2\]\[3\]
*1161 i_spi\.data\[2\]\[4\]
*1162 i_spi\.data\[2\]\[5\]
*1163 i_spi\.data\[2\]\[6\]
*1164 i_spi\.data\[2\]\[7\]
*1165 i_spi\.data\[3\]\[0\]
*1166 i_spi\.data\[3\]\[1\]
*1167 i_spi\.data\[3\]\[2\]
*1168 i_spi\.data\[3\]\[3\]
*1169 i_spi\.data\[3\]\[4\]
*1170 i_spi\.data\[3\]\[5\]
*1171 i_spi\.data\[3\]\[6\]
*1172 i_spi\.data\[3\]\[7\]
*1173 i_spi\.data\[4\]\[0\]
*1174 i_spi\.data\[4\]\[1\]
*1175 i_spi\.data\[4\]\[2\]
*1176 i_spi\.data\[4\]\[3\]
*1177 i_spi\.data\[4\]\[4\]
*1178 i_spi\.data\[4\]\[5\]
*1179 i_spi\.data\[4\]\[6\]
*1180 i_spi\.data\[4\]\[7\]
*1181 i_spi\.data\[5\]\[0\]
*1182 i_spi\.data\[5\]\[1\]
*1183 i_spi\.data\[5\]\[2\]
*1184 i_spi\.data\[5\]\[3\]
*1185 i_spi\.data\[5\]\[4\]
*1186 i_spi\.data\[5\]\[5\]
*1187 i_spi\.data\[5\]\[6\]
*1188 i_spi\.data\[5\]\[7\]
*1189 i_spi\.data\[6\]\[0\]
*1190 i_spi\.data\[6\]\[1\]
*1191 i_spi\.data\[6\]\[2\]
*1192 i_spi\.data\[6\]\[3\]
*1193 i_spi\.data\[6\]\[4\]
*1194 i_spi\.data\[6\]\[5\]
*1195 i_spi\.data\[6\]\[6\]
*1196 i_spi\.data\[6\]\[7\]
*1197 i_spi\.data\[7\]\[0\]
*1198 i_spi\.data\[7\]\[1\]
*1199 i_spi\.data\[7\]\[2\]
*1200 i_spi\.data\[7\]\[3\]
*1201 i_spi\.data\[7\]\[4\]
*1202 i_spi\.data\[7\]\[5\]
*1203 i_spi\.data\[7\]\[6\]
*1204 i_spi\.data\[7\]\[7\]
*1205 i_spi\.data_out_bits\[0\]
*1206 i_spi\.data_out_bits\[1\]
*1207 i_spi\.delay
*1208 i_spi\.next_cmd\[0\]
*1209 i_spi\.next_cmd\[10\]
*1210 i_spi\.next_cmd\[11\]
*1211 i_spi\.next_cmd\[12\]
*1212 i_spi\.next_cmd\[13\]
*1213 i_spi\.next_cmd\[14\]
*1214 i_spi\.next_cmd\[15\]
*1215 i_spi\.next_cmd\[16\]
*1216 i_spi\.next_cmd\[17\]
*1217 i_spi\.next_cmd\[18\]
*1218 i_spi\.next_cmd\[19\]
*1219 i_spi\.next_cmd\[1\]
*1220 i_spi\.next_cmd\[20\]
*1221 i_spi\.next_cmd\[21\]
*1222 i_spi\.next_cmd\[22\]
*1223 i_spi\.next_cmd\[23\]
*1224 i_spi\.next_cmd\[24\]
*1225 i_spi\.next_cmd\[25\]
*1226 i_spi\.next_cmd\[26\]
*1227 i_spi\.next_cmd\[27\]
*1228 i_spi\.next_cmd\[28\]
*1229 i_spi\.next_cmd\[29\]
*1230 i_spi\.next_cmd\[2\]
*1231 i_spi\.next_cmd\[30\]
*1232 i_spi\.next_cmd\[3\]
*1233 i_spi\.next_cmd\[4\]
*1234 i_spi\.next_cmd\[5\]
*1235 i_spi\.next_cmd\[6\]
*1236 i_spi\.next_cmd\[7\]
*1237 i_spi\.next_cmd\[8\]
*1238 i_spi\.next_cmd\[9\]
*1239 i_spi\.next_start_count\[0\]
*1240 i_spi\.next_start_count\[1\]
*1241 i_spi\.next_start_count\[2\]
*1242 i_spi\.next_start_count\[3\]
*1243 i_spi\.next_start_count\[4\]
*1244 i_spi\.q_data_out\[0\]
*1245 i_spi\.q_data_out\[1\]
*1246 i_spi\.q_data_out\[2\]
*1247 i_spi\.q_data_out\[3\]
*1248 i_spi\.quad
*1249 i_spi\.reading
*1250 i_spi\.rosc\.c\[0\]
*1251 i_spi\.rosc\.c\[10\]
*1252 i_spi\.rosc\.c\[1\]
*1253 i_spi\.rosc\.c\[2\]
*1254 i_spi\.rosc\.c\[3\]
*1255 i_spi\.rosc\.c\[4\]
*1256 i_spi\.rosc\.c\[5\]
*1257 i_spi\.rosc\.c\[6\]
*1258 i_spi\.rosc\.c\[7\]
*1259 i_spi\.rosc\.c\[8\]
*1260 i_spi\.rosc\.c\[9\]
*1261 i_spi\.rosc\.clk_div\[0\]
*1262 i_spi\.rosc\.clk_div\[1\]
*1263 i_spi\.rosc\.clk_div\[2\]
*1264 i_spi\.rosc\.clk_div\[3\]
*1265 i_spi\.rosc\.clk_div\[4\]
*1266 i_spi\.start_count\[0\]
*1267 i_spi\.start_count\[1\]
*1268 i_spi\.start_count\[2\]
*1269 i_spi\.start_count\[3\]
*1270 i_spi\.start_count\[4\]
*1271 i_spi\.writing
*1272 net1
*1273 net10
*1274 net100
*1275 net101
*1276 net102
*1277 net103
*1278 net104
*1279 net105
*1280 net106
*1281 net107
*1282 net108
*1283 net109
*1284 net11
*1285 net12
*1286 net13
*1287 net14
*1288 net15
*1289 net16
*1290 net2
*1291 net21
*1292 net22
*1293 net23
*1294 net24
*1295 net25
*1296 net26
*1297 net27
*1298 net28
*1299 net29
*1300 net3
*1301 net30
*1302 net31
*1303 net32
*1304 net33
*1305 net34
*1306 net35
*1307 net36
*1308 net37
*1309 net38
*1310 net39
*1311 net4
*1312 net40
*1313 net41
*1314 net42
*1315 net43
*1316 net44
*1317 net45
*1318 net46
*1319 net47
*1320 net48
*1321 net49
*1322 net5
*1323 net50
*1324 net51
*1325 net52
*1326 net53
*1327 net54
*1328 net55
*1329 net56
*1330 net57
*1331 net58
*1332 net59
*1333 net6
*1334 net60
*1335 net61
*1336 net62
*1337 net63
*1338 net64
*1339 net65
*1340 net66
*1341 net67
*1342 net68
*1343 net69
*1344 net7
*1345 net70
*1346 net71
*1347 net72
*1348 net73
*1349 net74
*1350 net75
*1351 net76
*1352 net77
*1353 net78
*1354 net79
*1355 net8
*1356 net80
*1357 net81
*1358 net82
*1359 net83
*1360 net84
*1361 net85
*1362 net86
*1363 net87
*1364 net88
*1365 net89
*1366 net9
*1367 net90
*1368 net91
*1369 net92
*1370 net93
*1371 net94
*1372 net95
*1373 net96
*1374 net97
*1375 net98
*1376 net99
*1377 ANTENNA_1
*1378 ANTENNA_10
*1379 ANTENNA_11
*1380 ANTENNA_12
*1381 ANTENNA_13
*1382 ANTENNA_14
*1383 ANTENNA_15
*1384 ANTENNA_16
*1385 ANTENNA_17
*1386 ANTENNA_18
*1387 ANTENNA_19
*1388 ANTENNA_2
*1389 ANTENNA_20
*1390 ANTENNA_3
*1391 ANTENNA_4
*1392 ANTENNA_5
*1393 ANTENNA_6
*1394 ANTENNA_7
*1395 ANTENNA_8
*1396 ANTENNA_9
*1397 FILLER_0_0_109
*1398 FILLER_0_0_113
*1399 FILLER_0_0_120
*1400 FILLER_0_0_127
*1401 FILLER_0_0_139
*1402 FILLER_0_0_141
*1403 FILLER_0_0_145
*1404 FILLER_0_0_15
*1405 FILLER_0_0_150
*1406 FILLER_0_0_162
*1407 FILLER_0_0_169
*1408 FILLER_0_0_173
*1409 FILLER_0_0_179
*1410 FILLER_0_0_185
*1411 FILLER_0_0_197
*1412 FILLER_0_0_206
*1413 FILLER_0_0_218
*1414 FILLER_0_0_225
*1415 FILLER_0_0_238
*1416 FILLER_0_0_250
*1417 FILLER_0_0_253
*1418 FILLER_0_0_265
*1419 FILLER_0_0_27
*1420 FILLER_0_0_277
*1421 FILLER_0_0_281
*1422 FILLER_0_0_29
*1423 FILLER_0_0_293
*1424 FILLER_0_0_3
*1425 FILLER_0_0_305
*1426 FILLER_0_0_309
*1427 FILLER_0_0_321
*1428 FILLER_0_0_333
*1429 FILLER_0_0_337
*1430 FILLER_0_0_349
*1431 FILLER_0_0_53
*1432 FILLER_0_0_57
*1433 FILLER_0_0_61
*1434 FILLER_0_0_71
*1435 FILLER_0_0_83
*1436 FILLER_0_0_85
*1437 FILLER_0_0_97
*1438 FILLER_0_10_100
*1439 FILLER_0_10_104
*1440 FILLER_0_10_116
*1441 FILLER_0_10_12
*1442 FILLER_0_10_133
*1443 FILLER_0_10_139
*1444 FILLER_0_10_149
*1445 FILLER_0_10_161
*1446 FILLER_0_10_170
*1447 FILLER_0_10_181
*1448 FILLER_0_10_19
*1449 FILLER_0_10_193
*1450 FILLER_0_10_197
*1451 FILLER_0_10_223
*1452 FILLER_0_10_242
*1453 FILLER_0_10_250
*1454 FILLER_0_10_260
*1455 FILLER_0_10_268
*1456 FILLER_0_10_279
*1457 FILLER_0_10_298
*1458 FILLER_0_10_3
*1459 FILLER_0_10_306
*1460 FILLER_0_10_309
*1461 FILLER_0_10_317
*1462 FILLER_0_10_324
*1463 FILLER_0_10_349
*1464 FILLER_0_10_37
*1465 FILLER_0_10_44
*1466 FILLER_0_10_52
*1467 FILLER_0_10_62
*1468 FILLER_0_10_74
*1469 FILLER_0_10_85
*1470 FILLER_0_10_91
*1471 FILLER_0_11_101
*1472 FILLER_0_11_109
*1473 FILLER_0_11_113
*1474 FILLER_0_11_121
*1475 FILLER_0_11_132
*1476 FILLER_0_11_144
*1477 FILLER_0_11_15
*1478 FILLER_0_11_150
*1479 FILLER_0_11_161
*1480 FILLER_0_11_167
*1481 FILLER_0_11_169
*1482 FILLER_0_11_187
*1483 FILLER_0_11_19
*1484 FILLER_0_11_213
*1485 FILLER_0_11_238
*1486 FILLER_0_11_246
*1487 FILLER_0_11_27
*1488 FILLER_0_11_272
*1489 FILLER_0_11_281
*1490 FILLER_0_11_291
*1491 FILLER_0_11_3
*1492 FILLER_0_11_306
*1493 FILLER_0_11_337
*1494 FILLER_0_11_349
*1495 FILLER_0_11_52
*1496 FILLER_0_11_57
*1497 FILLER_0_11_66
*1498 FILLER_0_11_78
*1499 FILLER_0_11_82
*1500 FILLER_0_11_89
*1501 FILLER_0_12_118
*1502 FILLER_0_12_126
*1503 FILLER_0_12_135
*1504 FILLER_0_12_139
*1505 FILLER_0_12_141
*1506 FILLER_0_12_145
*1507 FILLER_0_12_15
*1508 FILLER_0_12_154
*1509 FILLER_0_12_162
*1510 FILLER_0_12_170
*1511 FILLER_0_12_174
*1512 FILLER_0_12_183
*1513 FILLER_0_12_195
*1514 FILLER_0_12_197
*1515 FILLER_0_12_21
*1516 FILLER_0_12_216
*1517 FILLER_0_12_224
*1518 FILLER_0_12_238
*1519 FILLER_0_12_244
*1520 FILLER_0_12_253
*1521 FILLER_0_12_265
*1522 FILLER_0_12_3
*1523 FILLER_0_12_349
*1524 FILLER_0_12_35
*1525 FILLER_0_12_50
*1526 FILLER_0_12_66
*1527 FILLER_0_12_76
*1528 FILLER_0_12_93
*1529 FILLER_0_13_107
*1530 FILLER_0_13_11
*1531 FILLER_0_13_111
*1532 FILLER_0_13_113
*1533 FILLER_0_13_117
*1534 FILLER_0_13_122
*1535 FILLER_0_13_155
*1536 FILLER_0_13_17
*1537 FILLER_0_13_176
*1538 FILLER_0_13_180
*1539 FILLER_0_13_191
*1540 FILLER_0_13_196
*1541 FILLER_0_13_211
*1542 FILLER_0_13_221
*1543 FILLER_0_13_231
*1544 FILLER_0_13_238
*1545 FILLER_0_13_268
*1546 FILLER_0_13_276
*1547 FILLER_0_13_289
*1548 FILLER_0_13_29
*1549 FILLER_0_13_3
*1550 FILLER_0_13_34
*1551 FILLER_0_13_54
*1552 FILLER_0_13_62
*1553 FILLER_0_13_71
*1554 FILLER_0_13_83
*1555 FILLER_0_13_95
*1556 FILLER_0_14_116
*1557 FILLER_0_14_125
*1558 FILLER_0_14_137
*1559 FILLER_0_14_141
*1560 FILLER_0_14_145
*1561 FILLER_0_14_152
*1562 FILLER_0_14_160
*1563 FILLER_0_14_177
*1564 FILLER_0_14_189
*1565 FILLER_0_14_195
*1566 FILLER_0_14_220
*1567 FILLER_0_14_232
*1568 FILLER_0_14_244
*1569 FILLER_0_14_27
*1570 FILLER_0_14_274
*1571 FILLER_0_14_282
*1572 FILLER_0_14_3
*1573 FILLER_0_14_309
*1574 FILLER_0_14_333
*1575 FILLER_0_14_65
*1576 FILLER_0_14_75
*1577 FILLER_0_14_93
*1578 FILLER_0_14_97
*1579 FILLER_0_15_113
*1580 FILLER_0_15_117
*1581 FILLER_0_15_124
*1582 FILLER_0_15_129
*1583 FILLER_0_15_154
*1584 FILLER_0_15_165
*1585 FILLER_0_15_169
*1586 FILLER_0_15_173
*1587 FILLER_0_15_176
*1588 FILLER_0_15_186
*1589 FILLER_0_15_204
*1590 FILLER_0_15_223
*1591 FILLER_0_15_244
*1592 FILLER_0_15_254
*1593 FILLER_0_15_26
*1594 FILLER_0_15_279
*1595 FILLER_0_15_3
*1596 FILLER_0_15_313
*1597 FILLER_0_15_349
*1598 FILLER_0_15_47
*1599 FILLER_0_15_57
*1600 FILLER_0_16_11
*1601 FILLER_0_16_122
*1602 FILLER_0_16_134
*1603 FILLER_0_16_144
*1604 FILLER_0_16_152
*1605 FILLER_0_16_180
*1606 FILLER_0_16_19
*1607 FILLER_0_16_192
*1608 FILLER_0_16_201
*1609 FILLER_0_16_213
*1610 FILLER_0_16_217
*1611 FILLER_0_16_224
*1612 FILLER_0_16_239
*1613 FILLER_0_16_244
*1614 FILLER_0_16_253
*1615 FILLER_0_16_27
*1616 FILLER_0_16_29
*1617 FILLER_0_16_291
*1618 FILLER_0_16_3
*1619 FILLER_0_16_334
*1620 FILLER_0_16_83
*1621 FILLER_0_16_95
*1622 FILLER_0_17_102
*1623 FILLER_0_17_113
*1624 FILLER_0_17_134
*1625 FILLER_0_17_167
*1626 FILLER_0_17_172
*1627 FILLER_0_17_180
*1628 FILLER_0_17_205
*1629 FILLER_0_17_232
*1630 FILLER_0_17_242
*1631 FILLER_0_17_266
*1632 FILLER_0_17_276
*1633 FILLER_0_17_281
*1634 FILLER_0_17_3
*1635 FILLER_0_17_345
*1636 FILLER_0_17_349
*1637 FILLER_0_17_67
*1638 FILLER_0_17_74
*1639 FILLER_0_17_83
*1640 FILLER_0_18_109
*1641 FILLER_0_18_113
*1642 FILLER_0_18_128
*1643 FILLER_0_18_135
*1644 FILLER_0_18_197
*1645 FILLER_0_18_223
*1646 FILLER_0_18_227
*1647 FILLER_0_18_23
*1648 FILLER_0_18_244
*1649 FILLER_0_18_253
*1650 FILLER_0_18_264
*1651 FILLER_0_18_278
*1652 FILLER_0_18_29
*1653 FILLER_0_18_307
*1654 FILLER_0_18_309
*1655 FILLER_0_18_349
*1656 FILLER_0_18_68
*1657 FILLER_0_19_113
*1658 FILLER_0_19_117
*1659 FILLER_0_19_125
*1660 FILLER_0_19_140
*1661 FILLER_0_19_157
*1662 FILLER_0_19_17
*1663 FILLER_0_19_203
*1664 FILLER_0_19_222
*1665 FILLER_0_19_225
*1666 FILLER_0_19_235
*1667 FILLER_0_19_290
*1668 FILLER_0_19_3
*1669 FILLER_0_19_304
*1670 FILLER_0_19_349
*1671 FILLER_0_19_47
*1672 FILLER_0_19_55
*1673 FILLER_0_19_57
*1674 FILLER_0_19_68
*1675 FILLER_0_19_84
*1676 FILLER_0_19_88
*1677 FILLER_0_1_108
*1678 FILLER_0_1_127
*1679 FILLER_0_1_144
*1680 FILLER_0_1_15
*1681 FILLER_0_1_159
*1682 FILLER_0_1_175
*1683 FILLER_0_1_192
*1684 FILLER_0_1_196
*1685 FILLER_0_1_210
*1686 FILLER_0_1_223
*1687 FILLER_0_1_23
*1688 FILLER_0_1_253
*1689 FILLER_0_1_26
*1690 FILLER_0_1_268
*1691 FILLER_0_1_278
*1692 FILLER_0_1_289
*1693 FILLER_0_1_3
*1694 FILLER_0_1_305
*1695 FILLER_0_1_316
*1696 FILLER_0_1_328
*1697 FILLER_0_1_337
*1698 FILLER_0_1_349
*1699 FILLER_0_1_57
*1700 FILLER_0_1_61
*1701 FILLER_0_1_78
*1702 FILLER_0_1_98
*1703 FILLER_0_20_109
*1704 FILLER_0_20_129
*1705 FILLER_0_20_137
*1706 FILLER_0_20_157
*1707 FILLER_0_20_200
*1708 FILLER_0_20_217
*1709 FILLER_0_20_23
*1710 FILLER_0_20_251
*1711 FILLER_0_20_256
*1712 FILLER_0_20_27
*1713 FILLER_0_20_334
*1714 FILLER_0_20_38
*1715 FILLER_0_20_52
*1716 FILLER_0_20_69
*1717 FILLER_0_20_83
*1718 FILLER_0_21_118
*1719 FILLER_0_21_122
*1720 FILLER_0_21_127
*1721 FILLER_0_21_13
*1722 FILLER_0_21_156
*1723 FILLER_0_21_166
*1724 FILLER_0_21_184
*1725 FILLER_0_21_188
*1726 FILLER_0_21_205
*1727 FILLER_0_21_212
*1728 FILLER_0_21_216
*1729 FILLER_0_21_270
*1730 FILLER_0_21_284
*1731 FILLER_0_21_3
*1732 FILLER_0_21_323
*1733 FILLER_0_21_334
*1734 FILLER_0_21_88
*1735 FILLER_0_21_9
*1736 FILLER_0_22_124
*1737 FILLER_0_22_138
*1738 FILLER_0_22_195
*1739 FILLER_0_22_209
*1740 FILLER_0_22_23
*1741 FILLER_0_22_262
*1742 FILLER_0_22_284
*1743 FILLER_0_22_75
*1744 FILLER_0_22_79
*1745 FILLER_0_23_129
*1746 FILLER_0_23_13
*1747 FILLER_0_23_185
*1748 FILLER_0_23_225
*1749 FILLER_0_23_279
*1750 FILLER_0_23_3
*1751 FILLER_0_23_326
*1752 FILLER_0_23_349
*1753 FILLER_0_23_43
*1754 FILLER_0_23_51
*1755 FILLER_0_23_65
*1756 FILLER_0_23_9
*1757 FILLER_0_24_178
*1758 FILLER_0_24_194
*1759 FILLER_0_24_214
*1760 FILLER_0_24_232
*1761 FILLER_0_24_27
*1762 FILLER_0_24_312
*1763 FILLER_0_24_330
*1764 FILLER_0_24_82
*1765 FILLER_0_25_101
*1766 FILLER_0_25_111
*1767 FILLER_0_25_113
*1768 FILLER_0_25_118
*1769 FILLER_0_25_12
*1770 FILLER_0_25_151
*1771 FILLER_0_25_222
*1772 FILLER_0_25_237
*1773 FILLER_0_25_279
*1774 FILLER_0_25_3
*1775 FILLER_0_25_317
*1776 FILLER_0_25_335
*1777 FILLER_0_25_43
*1778 FILLER_0_25_52
*1779 FILLER_0_25_71
*1780 FILLER_0_26_117
*1781 FILLER_0_26_135
*1782 FILLER_0_26_224
*1783 FILLER_0_26_251
*1784 FILLER_0_26_262
*1785 FILLER_0_26_272
*1786 FILLER_0_26_292
*1787 FILLER_0_26_306
*1788 FILLER_0_26_309
*1789 FILLER_0_26_350
*1790 FILLER_0_27_101
*1791 FILLER_0_27_105
*1792 FILLER_0_27_111
*1793 FILLER_0_27_119
*1794 FILLER_0_27_131
*1795 FILLER_0_27_139
*1796 FILLER_0_27_15
*1797 FILLER_0_27_24
*1798 FILLER_0_27_250
*1799 FILLER_0_27_279
*1800 FILLER_0_27_3
*1801 FILLER_0_27_302
*1802 FILLER_0_27_327
*1803 FILLER_0_27_349
*1804 FILLER_0_27_65
*1805 FILLER_0_28_107
*1806 FILLER_0_28_117
*1807 FILLER_0_28_125
*1808 FILLER_0_28_13
*1809 FILLER_0_28_132
*1810 FILLER_0_28_162
*1811 FILLER_0_28_170
*1812 FILLER_0_28_176
*1813 FILLER_0_28_194
*1814 FILLER_0_28_251
*1815 FILLER_0_28_26
*1816 FILLER_0_28_289
*1817 FILLER_0_28_3
*1818 FILLER_0_28_307
*1819 FILLER_0_28_349
*1820 FILLER_0_28_45
*1821 FILLER_0_28_49
*1822 FILLER_0_28_70
*1823 FILLER_0_28_74
*1824 FILLER_0_28_79
*1825 FILLER_0_28_85
*1826 FILLER_0_28_9
*1827 FILLER_0_29_145
*1828 FILLER_0_29_176
*1829 FILLER_0_29_192
*1830 FILLER_0_29_258
*1831 FILLER_0_29_26
*1832 FILLER_0_29_279
*1833 FILLER_0_29_334
*1834 FILLER_0_29_349
*1835 FILLER_0_29_41
*1836 FILLER_0_29_49
*1837 FILLER_0_29_55
*1838 FILLER_0_29_69
*1839 FILLER_0_2_100
*1840 FILLER_0_2_106
*1841 FILLER_0_2_118
*1842 FILLER_0_2_130
*1843 FILLER_0_2_138
*1844 FILLER_0_2_146
*1845 FILLER_0_2_15
*1846 FILLER_0_2_158
*1847 FILLER_0_2_169
*1848 FILLER_0_2_177
*1849 FILLER_0_2_193
*1850 FILLER_0_2_197
*1851 FILLER_0_2_208
*1852 FILLER_0_2_212