*SPEF "ieee 1481-1999"
*DESIGN "tt_um_wokwi_380408396356749313"
*DATE "11:11:11 Fri 11 11, 1111"
*VENDOR "OpenRCX"
*PROGRAM "Parallel Extraction"
*VERSION "1.0"
*DESIGN_FLOW "NAME_SCOPE LOCAL" "PIN_CAP NONE"
*DIVIDER /
*DELIMITER :
*BUS_DELIMITER []
*T_UNIT 1 NS
*C_UNIT 1 PF
*R_UNIT 1 OHM
*L_UNIT 1 HENRY

*NAME_MAP
*3 clk
*4 ena
*5 rst_n
*6 ui_in[0]
*7 ui_in[1]
*8 ui_in[2]
*9 ui_in[3]
*10 ui_in[4]
*11 ui_in[5]
*12 ui_in[6]
*13 ui_in[7]
*14 uio_in[0]
*15 uio_in[1]
*16 uio_in[2]
*17 uio_in[3]
*18 uio_in[4]
*19 uio_in[5]
*20 uio_in[6]
*21 uio_in[7]
*22 net20
*23 net21
*24 net2
*25 net3
*26 net4
*27 net5
*28 net6
*29 net7
*30 net8
*31 net9
*32 net10
*33 net11
*34 net12
*35 net13
*36 net14
*37 net15
*38 uo_out[0]
*39 uo_out[1]
*40 uo_out[2]
*41 uo_out[3]
*42 net16
*43 net17
*44 net18
*45 net19
*46 net1
*47 not1\.out
*48 FILLER_0_0_109
*49 FILLER_0_0_113
*50 FILLER_0_0_125
*51 FILLER_0_0_137
*52 FILLER_0_0_141
*53 FILLER_0_0_15
*54 FILLER_0_0_153
*55 FILLER_0_0_165
*56 FILLER_0_0_169
*57 FILLER_0_0_181
*58 FILLER_0_0_193
*59 FILLER_0_0_197
*60 FILLER_0_0_209
*61 FILLER_0_0_221
*62 FILLER_0_0_225
*63 FILLER_0_0_237
*64 FILLER_0_0_249
*65 FILLER_0_0_253
*66 FILLER_0_0_265
*67 FILLER_0_0_27
*68 FILLER_0_0_277
*69 FILLER_0_0_281
*70 FILLER_0_0_29
*71 FILLER_0_0_293
*72 FILLER_0_0_3
*73 FILLER_0_0_305
*74 FILLER_0_0_309
*75 FILLER_0_0_321
*76 FILLER_0_0_333
*77 FILLER_0_0_337
*78 FILLER_0_0_349
*79 FILLER_0_0_41
*80 FILLER_0_0_53
*81 FILLER_0_0_57
*82 FILLER_0_0_69
*83 FILLER_0_0_81
*84 FILLER_0_0_85
*85 FILLER_0_0_97
*86 FILLER_0_10_109
*87 FILLER_0_10_121
*88 FILLER_0_10_133
*89 FILLER_0_10_139
*90 FILLER_0_10_141
*91 FILLER_0_10_15
*92 FILLER_0_10_153
*93 FILLER_0_10_165
*94 FILLER_0_10_177
*95 FILLER_0_10_189
*96 FILLER_0_10_195
*97 FILLER_0_10_197
*98 FILLER_0_10_209
*99 FILLER_0_10_221
*100 FILLER_0_10_233
*101 FILLER_0_10_245
*102 FILLER_0_10_251
*103 FILLER_0_10_253
*104 FILLER_0_10_265
*105 FILLER_0_10_27
*106 FILLER_0_10_277
*107 FILLER_0_10_289
*108 FILLER_0_10_29
*109 FILLER_0_10_3
*110 FILLER_0_10_301
*111 FILLER_0_10_307
*112 FILLER_0_10_309
*113 FILLER_0_10_321
*114 FILLER_0_10_333
*115 FILLER_0_10_345
*116 FILLER_0_10_41
*117 FILLER_0_10_53
*118 FILLER_0_10_65
*119 FILLER_0_10_77
*120 FILLER_0_10_83
*121 FILLER_0_10_85
*122 FILLER_0_10_97
*123 FILLER_0_11_105
*124 FILLER_0_11_111
*125 FILLER_0_11_113
*126 FILLER_0_11_125
*127 FILLER_0_11_137
*128 FILLER_0_11_149
*129 FILLER_0_11_15
*130 FILLER_0_11_161
*131 FILLER_0_11_167
*132 FILLER_0_11_169
*133 FILLER_0_11_181
*134 FILLER_0_11_193
*135 FILLER_0_11_205
*136 FILLER_0_11_217
*137 FILLER_0_11_223
*138 FILLER_0_11_225
*139 FILLER_0_11_237
*140 FILLER_0_11_249
*141 FILLER_0_11_261
*142 FILLER_0_11_27
*143 FILLER_0_11_273
*144 FILLER_0_11_279
*145 FILLER_0_11_281
*146 FILLER_0_11_293
*147 FILLER_0_11_3
*148 FILLER_0_11_305
*149 FILLER_0_11_317
*150 FILLER_0_11_329
*151 FILLER_0_11_335
*152 FILLER_0_11_337
*153 FILLER_0_11_349
*154 FILLER_0_11_39
*155 FILLER_0_11_51
*156 FILLER_0_11_55
*157 FILLER_0_11_57
*158 FILLER_0_11_69
*159 FILLER_0_11_81
*160 FILLER_0_11_93
*161 FILLER_0_12_109
*162 FILLER_0_12_121
*163 FILLER_0_12_133
*164 FILLER_0_12_139
*165 FILLER_0_12_141
*166 FILLER_0_12_15
*167 FILLER_0_12_153
*168 FILLER_0_12_165
*169 FILLER_0_12_177
*170 FILLER_0_12_189
*171 FILLER_0_12_195
*172 FILLER_0_12_197
*173 FILLER_0_12_209
*174 FILLER_0_12_221
*175 FILLER_0_12_233
*176 FILLER_0_12_245
*177 FILLER_0_12_251
*178 FILLER_0_12_253
*179 FILLER_0_12_265
*180 FILLER_0_12_27
*181 FILLER_0_12_277
*182 FILLER_0_12_289
*183 FILLER_0_12_29
*184 FILLER_0_12_3
*185 FILLER_0_12_301
*186 FILLER_0_12_307
*187 FILLER_0_12_309
*188 FILLER_0_12_321
*189 FILLER_0_12_333
*190 FILLER_0_12_345
*191 FILLER_0_12_41
*192 FILLER_0_12_53
*193 FILLER_0_12_65
*194 FILLER_0_12_77
*195 FILLER_0_12_83
*196 FILLER_0_12_85
*197 FILLER_0_12_97
*198 FILLER_0_13_105
*199 FILLER_0_13_111
*200 FILLER_0_13_113
*201 FILLER_0_13_125
*202 FILLER_0_13_137
*203 FILLER_0_13_149
*204 FILLER_0_13_15
*205 FILLER_0_13_161
*206 FILLER_0_13_167
*207 FILLER_0_13_169
*208 FILLER_0_13_181
*209 FILLER_0_13_193
*210 FILLER_0_13_205
*211 FILLER_0_13_217
*212 FILLER_0_13_223
*213 FILLER_0_13_225
*214 FILLER_0_13_237
*215 FILLER_0_13_249
*216 FILLER_0_13_261
*217 FILLER_0_13_27
*218 FILLER_0_13_273
*219 FILLER_0_13_279
*220 FILLER_0_13_281
*221 FILLER_0_13_293
*222 FILLER_0_13_3
*223 FILLER_0_13_305
*224 FILLER_0_13_317
*225 FILLER_0_13_329
*226 FILLER_0_13_335
*227 FILLER_0_13_337
*228 FILLER_0_13_349
*229 FILLER_0_13_39
*230 FILLER_0_13_51
*231 FILLER_0_13_55
*232 FILLER_0_13_57
*233 FILLER_0_13_69
*234 FILLER_0_13_81
*235 FILLER_0_13_93
*236 FILLER_0_14_109
*237 FILLER_0_14_121
*238 FILLER_0_14_133
*239 FILLER_0_14_139
*240 FILLER_0_14_141
*241 FILLER_0_14_15
*242 FILLER_0_14_153
*243 FILLER_0_14_165
*244 FILLER_0_14_177
*245 FILLER_0_14_189
*246 FILLER_0_14_195
*247 FILLER_0_14_197
*248 FILLER_0_14_209
*249 FILLER_0_14_221
*250 FILLER_0_14_233
*251 FILLER_0_14_245
*252 FILLER_0_14_251
*253 FILLER_0_14_253
*254 FILLER_0_14_265
*255 FILLER_0_14_27
*256 FILLER_0_14_277
*257 FILLER_0_14_289
*258 FILLER_0_14_29
*259 FILLER_0_14_3
*260 FILLER_0_14_301
*261 FILLER_0_14_307
*262 FILLER_0_14_309
*263 FILLER_0_14_321
*264 FILLER_0_14_333
*265 FILLER_0_14_345
*266 FILLER_0_14_41
*267 FILLER_0_14_53
*268 FILLER_0_14_65
*269 FILLER_0_14_77
*270 FILLER_0_14_83
*271 FILLER_0_14_85
*272 FILLER_0_14_97
*273 FILLER_0_15_105
*274 FILLER_0_15_111
*275 FILLER_0_15_113
*276 FILLER_0_15_125
*277 FILLER_0_15_137
*278 FILLER_0_15_149
*279 FILLER_0_15_15
*280 FILLER_0_15_161
*281 FILLER_0_15_167
*282 FILLER_0_15_169
*283 FILLER_0_15_181
*284 FILLER_0_15_193
*285 FILLER_0_15_205
*286 FILLER_0_15_217
*287 FILLER_0_15_223
*288 FILLER_0_15_225
*289 FILLER_0_15_237
*290 FILLER_0_15_249
*291 FILLER_0_15_261
*292 FILLER_0_15_27
*293 FILLER_0_15_273
*294 FILLER_0_15_279
*295 FILLER_0_15_281
*296 FILLER_0_15_293
*297 FILLER_0_15_3
*298 FILLER_0_15_305
*299 FILLER_0_15_317
*300 FILLER_0_15_329
*301 FILLER_0_15_335
*302 FILLER_0_15_337
*303 FILLER_0_15_349
*304 FILLER_0_15_39
*305 FILLER_0_15_51
*306 FILLER_0_15_55
*307 FILLER_0_15_57
*308 FILLER_0_15_69
*309 FILLER_0_15_81
*310 FILLER_0_15_93
*311 FILLER_0_16_109
*312 FILLER_0_16_121
*313 FILLER_0_16_133
*314 FILLER_0_16_139
*315 FILLER_0_16_141
*316 FILLER_0_16_15
*317 FILLER_0_16_153
*318 FILLER_0_16_165
*319 FILLER_0_16_177
*320 FILLER_0_16_189
*321 FILLER_0_16_195
*322 FILLER_0_16_197
*323 FILLER_0_16_209
*324 FILLER_0_16_221
*325 FILLER_0_16_233
*326 FILLER_0_16_245
*327 FILLER_0_16_251
*328 FILLER_0_16_253
*329 FILLER_0_16_265
*330 FILLER_0_16_27
*331 FILLER_0_16_277
*332 FILLER_0_16_289
*333 FILLER_0_16_29
*334 FILLER_0_16_3
*335 FILLER_0_16_301
*336 FILLER_0_16_307
*337 FILLER_0_16_309
*338 FILLER_0_16_321
*339 FILLER_0_16_333
*340 FILLER_0_16_345
*341 FILLER_0_16_41
*342 FILLER_0_16_53
*343 FILLER_0_16_65
*344 FILLER_0_16_77
*345 FILLER_0_16_83
*346 FILLER_0_16_85
*347 FILLER_0_16_97
*348 FILLER_0_17_105
*349 FILLER_0_17_111
*350 FILLER_0_17_113
*351 FILLER_0_17_125
*352 FILLER_0_17_137
*353 FILLER_0_17_149
*354 FILLER_0_17_15
*355 FILLER_0_17_161
*356 FILLER_0_17_167
*357 FILLER_0_17_169
*358 FILLER_0_17_181
*359 FILLER_0_17_193
*360 FILLER_0_17_205
*361 FILLER_0_17_217
*362 FILLER_0_17_223
*363 FILLER_0_17_225
*364 FILLER_0_17_237
*365 FILLER_0_17_249
*366 FILLER_0_17_261
*367 FILLER_0_17_27
*368 FILLER_0_17_273
*369 FILLER_0_17_279
*370 FILLER_0_17_281
*371 FILLER_0_17_293
*372 FILLER_0_17_3
*373 FILLER_0_17_305
*374 FILLER_0_17_317
*375 FILLER_0_17_329
*376 FILLER_0_17_335
*377 FILLER_0_17_337
*378 FILLER_0_17_349
*379 FILLER_0_17_39
*380 FILLER_0_17_51
*381 FILLER_0_17_55
*382 FILLER_0_17_57
*383 FILLER_0_17_69
*384 FILLER_0_17_81
*385 FILLER_0_17_93
*386 FILLER_0_18_109
*387 FILLER_0_18_121
*388 FILLER_0_18_133
*389 FILLER_0_18_139
*390 FILLER_0_18_141
*391 FILLER_0_18_15
*392 FILLER_0_18_153
*393 FILLER_0_18_165
*394 FILLER_0_18_177
*395 FILLER_0_18_189
*396 FILLER_0_18_195
*397 FILLER_0_18_197
*398 FILLER_0_18_209
*399 FILLER_0_18_221
*400 FILLER_0_18_233
*401 FILLER_0_18_245
*402 FILLER_0_18_251
*403 FILLER_0_18_253
*404 FILLER_0_18_265
*405 FILLER_0_18_27
*406 FILLER_0_18_277
*407 FILLER_0_18_289
*408 FILLER_0_18_29
*409 FILLER_0_18_3
*410 FILLER_0_18_301
*411 FILLER_0_18_307
*412 FILLER_0_18_309
*413 FILLER_0_18_321
*414 FILLER_0_18_333
*415 FILLER_0_18_345
*416 FILLER_0_18_41
*417 FILLER_0_18_53
*418 FILLER_0_18_65
*419 FILLER_0_18_77
*420 FILLER_0_18_83
*421 FILLER_0_18_85
*422 FILLER_0_18_97
*423 FILLER_0_19_105
*424 FILLER_0_19_111
*425 FILLER_0_19_113
*426 FILLER_0_19_125
*427 FILLER_0_19_137
*428 FILLER_0_19_149
*429 FILLER_0_19_15
*430 FILLER_0_19_161
*431 FILLER_0_19_167
*432 FILLER_0_19_169
*433 FILLER_0_19_181
*434 FILLER_0_19_193
*435 FILLER_0_19_205
*436 FILLER_0_19_217
*437 FILLER_0_19_223
*438 FILLER_0_19_225
*439 FILLER_0_19_237
*440 FILLER_0_19_249
*441 FILLER_0_19_261
*442 FILLER_0_19_27
*443 FILLER_0_19_273
*444 FILLER_0_19_279
*445 FILLER_0_19_281
*446 FILLER_0_19_293
*447 FILLER_0_19_3
*448 FILLER_0_19_305
*449 FILLER_0_19_317
*450 FILLER_0_19_329
*451 FILLER_0_19_335
*452 FILLER_0_19_337
*453 FILLER_0_19_349
*454 FILLER_0_19_39
*455 FILLER_0_19_51
*456 FILLER_0_19_55
*457 FILLER_0_19_57
*458 FILLER_0_19_69
*459 FILLER_0_19_81
*460 FILLER_0_19_93
*461 FILLER_0_1_105
*462 FILLER_0_1_111
*463 FILLER_0_1_113
*464 FILLER_0_1_125
*465 FILLER_0_1_137
*466 FILLER_0_1_149
*467 FILLER_0_1_15
*468 FILLER_0_1_161
*469 FILLER_0_1_167
*470 FILLER_0_1_169
*471 FILLER_0_1_181
*472 FILLER_0_1_193
*473 FILLER_0_1_205
*474 FILLER_0_1_217
*475 FILLER_0_1_223
*476 FILLER_0_1_225
*477 FILLER_0_1_237
*478 FILLER_0_1_249
*479 FILLER_0_1_261
*480 FILLER_0_1_27
*481 FILLER_0_1_273
*482 FILLER_0_1_279
*483 FILLER_0_1_281
*484 FILLER_0_1_293
*485 FILLER_0_1_3
*486 FILLER_0_1_305
*487 FILLER_0_1_317
*488 FILLER_0_1_329
*489 FILLER_0_1_335
*490 FILLER_0_1_337
*491 FILLER_0_1_349
*492 FILLER_0_1_39
*493 FILLER_0_1_51
*494 FILLER_0_1_55
*495 FILLER_0_1_57
*496 FILLER_0_1_69
*497 FILLER_0_1_81
*498 FILLER_0_1_93
*499 FILLER_0_20_109
*500 FILLER_0_20_121
*501 FILLER_0_20_133
*502 FILLER_0_20_139
*503 FILLER_0_20_141
*504 FILLER_0_20_15
*505 FILLER_0_20_153
*506 FILLER_0_20_165
*507 FILLER_0_20_177
*508 FILLER_0_20_189
*509 FILLER_0_20_195
*510 FILLER_0_20_197
*511 FILLER_0_20_209
*512 FILLER_0_20_221
*513 FILLER_0_20_233
*514 FILLER_0_20_245
*515 FILLER_0_20_251
*516 FILLER_0_20_253
*517 FILLER_0_20_265
*518 FILLER_0_20_27
*519 FILLER_0_20_277
*520 FILLER_0_20_289
*521 FILLER_0_20_29
*522 FILLER_0_20_3
*523 FILLER_0_20_301
*524 FILLER_0_20_307
*525 FILLER_0_20_309
*526 FILLER_0_20_321
*527 FILLER_0_20_333
*528 FILLER_0_20_345
*529 FILLER_0_20_41
*530 FILLER_0_20_53
*531 FILLER_0_20_65
*532 FILLER_0_20_77
*533 FILLER_0_20_83
*534 FILLER_0_20_85
*535 FILLER_0_20_97
*536 FILLER_0_21_105
*537 FILLER_0_21_111
*538 FILLER_0_21_113
*539 FILLER_0_21_125
*540 FILLER_0_21_137
*541 FILLER_0_21_149
*542 FILLER_0_21_15
*543 FILLER_0_21_161
*544 FILLER_0_21_167
*545 FILLER_0_21_169
*546 FILLER_0_21_181
*547 FILLER_0_21_193
*548 FILLER_0_21_205
*549 FILLER_0_21_217
*550 FILLER_0_21_223
*551 FILLER_0_21_225
*552 FILLER_0_21_237
*553 FILLER_0_21_249
*554 FILLER_0_21_261
*555 FILLER_0_21_27
*556 FILLER_0_21_273
*557 FILLER_0_21_279
*558 FILLER_0_21_281
*559 FILLER_0_21_293
*560 FILLER_0_21_3
*561 FILLER_0_21_305
*562 FILLER_0_21_317
*563 FILLER_0_21_329
*564 FILLER_0_21_335
*565 FILLER_0_21_337
*566 FILLER_0_21_349
*567 FILLER_0_21_39
*568 FILLER_0_21_51
*569 FILLER_0_21_55
*570 FILLER_0_21_57
*571 FILLER_0_21_69
*572 FILLER_0_21_81
*573 FILLER_0_21_93
*574 FILLER_0_22_109
*575 FILLER_0_22_121
*576 FILLER_0_22_133
*577 FILLER_0_22_139
*578 FILLER_0_22_141
*579 FILLER_0_22_15
*580 FILLER_0_22_153
*581 FILLER_0_22_165
*582 FILLER_0_22_177
*583 FILLER_0_22_189
*584 FILLER_0_22_195
*585 FILLER_0_22_197
*586 FILLER_0_22_209
*587 FILLER_0_22_221
*588 FILLER_0_22_233
*589 FILLER_0_22_245
*590 FILLER_0_22_251
*591 FILLER_0_22_253
*592 FILLER_0_22_265
*593 FILLER_0_22_27
*594 FILLER_0_22_277
*595 FILLER_0_22_289
*596 FILLER_0_22_29
*597 FILLER_0_22_3
*598 FILLER_0_22_301
*599 FILLER_0_22_307
*600 FILLER_0_22_309
*601 FILLER_0_22_321
*602 FILLER_0_22_333
*603 FILLER_0_22_345
*604 FILLER_0_22_41
*605 FILLER_0_22_53
*606 FILLER_0_22_65
*607 FILLER_0_22_77
*608 FILLER_0_22_83
*609 FILLER_0_22_85
*610 FILLER_0_22_97
*611 FILLER_0_23_105
*612 FILLER_0_23_111
*613 FILLER_0_23_113
*614 FILLER_0_23_125
*615 FILLER_0_23_137
*616 FILLER_0_23_149
*617 FILLER_0_23_15
*618 FILLER_0_23_161
*619 FILLER_0_23_167
*620 FILLER_0_23_169
*621 FILLER_0_23_181
*622 FILLER_0_23_193
*623 FILLER_0_23_205
*624 FILLER_0_23_217
*625 FILLER_0_23_223
*626 FILLER_0_23_225
*627 FILLER_0_23_237
*628 FILLER_0_23_249
*629 FILLER_0_23_261
*630 FILLER_0_23_27
*631 FILLER_0_23_273
*632 FILLER_0_23_279
*633 FILLER_0_23_281
*634 FILLER_0_23_293
*635 FILLER_0_23_3
*636 FILLER_0_23_305
*637 FILLER_0_23_317
*638 FILLER_0_23_329
*639 FILLER_0_23_335
*640 FILLER_0_23_337
*641 FILLER_0_23_349
*642 FILLER_0_23_39
*643 FILLER_0_23_51
*644 FILLER_0_23_55
*645 FILLER_0_23_57
*646 FILLER_0_23_69
*647 FILLER_0_23_81
*648 FILLER_0_23_93
*649 FILLER_0_24_109
*650 FILLER_0_24_121
*651 FILLER_0_24_133
*652 FILLER_0_24_139
*653 FILLER_0_24_141
*654 FILLER_0_24_15
*655 FILLER_0_24_153
*656 FILLER_0_24_165
*657 FILLER_0_24_177
*658 FILLER_0_24_189
*659 FILLER_0_24_195
*660 FILLER_0_24_197
*661 FILLER_0_24_209
*662 FILLER_0_24_221
*663 FILLER_0_24_233
*664 FILLER_0_24_245
*665 FILLER_0_24_251
*666 FILLER_0_24_253
*667 FILLER_0_24_265
*668 FILLER_0_24_27
*669 FILLER_0_24_277
*670 FILLER_0_24_289
*671 FILLER_0_24_29
*672 FILLER_0_24_3
*673 FILLER_0_24_301
*674 FILLER_0_24_307
*675 FILLER_0_24_309
*676 FILLER_0_24_321
*677 FILLER_0_24_333
*678 FILLER_0_24_345
*679 FILLER_0_24_41
*680 FILLER_0_24_53
*681 FILLER_0_24_65
*682 FILLER_0_24_77
*683 FILLER_0_24_83
*684 FILLER_0_24_85
*685 FILLER_0_24_97
*686 FILLER_0_25_105
*687 FILLER_0_25_111
*688 FILLER_0_25_113
*689 FILLER_0_25_125
*690 FILLER_0_25_137
*691 FILLER_0_25_149
*692 FILLER_0_25_15
*693 FILLER_0_25_161
*694 FILLER_0_25_167
*695 FILLER_0_25_169
*696 FILLER_0_25_181
*697 FILLER_0_25_193
*698 FILLER_0_25_205
*699 FILLER_0_25_217
*700 FILLER_0_25_223
*701 FILLER_0_25_225
*702 FILLER_0_25_237
*703 FILLER_0_25_249
*704 FILLER_0_25_261
*705 FILLER_0_25_27
*706 FILLER_0_25_273
*707 FILLER_0_25_279
*708 FILLER_0_25_281
*709 FILLER_0_25_293
*710 FILLER_0_25_3
*711 FILLER_0_25_305
*712 FILLER_0_25_317
*713 FILLER_0_25_329
*714 FILLER_0_25_335
*715 FILLER_0_25_337
*716 FILLER_0_25_349
*717 FILLER_0_25_39
*718 FILLER_0_25_51
*719 FILLER_0_25_55
*720 FILLER_0_25_57
*721 FILLER_0_25_69
*722 FILLER_0_25_81
*723 FILLER_0_25_93
*724 FILLER_0_26_109
*725 FILLER_0_26_121
*726 FILLER_0_26_133
*727 FILLER_0_26_139
*728 FILLER_0_26_141
*729 FILLER_0_26_15
*730 FILLER_0_26_153
*731 FILLER_0_26_165
*732 FILLER_0_26_177
*733 FILLER_0_26_189
*734 FILLER_0_26_195
*735 FILLER_0_26_197
*736 FILLER_0_26_209
*737 FILLER_0_26_221
*738 FILLER_0_26_233
*739 FILLER_0_26_245
*740 FILLER_0_26_251
*741 FILLER_0_26_253
*742 FILLER_0_26_265
*743 FILLER_0_26_27
*744 FILLER_0_26_277
*745 FILLER_0_26_289
*746 FILLER_0_26_29
*747 FILLER_0_26_3
*748 FILLER_0_26_301
*749 FILLER_0_26_307
*750 FILLER_0_26_309
*751 FILLER_0_26_321
*752 FILLER_0_26_333
*753 FILLER_0_26_345
*754 FILLER_0_26_41
*755 FILLER_0_26_53
*756 FILLER_0_26_65
*757 FILLER_0_26_77
*758 FILLER_0_26_83
*759 FILLER_0_26_85
*760 FILLER_0_26_97
*761 FILLER_0_27_105
*762 FILLER_0_27_111
*763 FILLER_0_27_113
*764 FILLER_0_27_125
*765 FILLER_0_27_137
*766 FILLER_0_27_149
*767 FILLER_0_27_15
*768 FILLER_0_27_161
*769 FILLER_0_27_167
*770 FILLER_0_27_169
*771 FILLER_0_27_181
*772 FILLER_0_27_193
*773 FILLER_0_27_205
*774 FILLER_0_27_217
*775 FILLER_0_27_223
*776 FILLER_0_27_225
*777 FILLER_0_27_237
*778 FILLER_0_27_249
*779 FILLER_0_27_261
*780 FILLER_0_27_27
*781 FILLER_0_27_273
*782 FILLER_0_27_279
*783 FILLER_0_27_281
*784 FILLER_0_27_293
*785 FILLER_0_27_3
*786 FILLER_0_27_305
*787 FILLER_0_27_317
*788 FILLER_0_27_329
*789 FILLER_0_27_335
*790 FILLER_0_27_337
*791 FILLER_0_27_349
*792 FILLER_0_27_39
*793 FILLER_0_27_51
*794 FILLER_0_27_55
*795 FILLER_0_27_57
*796 FILLER_0_27_69
*797 FILLER_0_27_81
*798 FILLER_0_27_93
*799 FILLER_0_28_109
*800 FILLER_0_28_121
*801 FILLER_0_28_133
*802 FILLER_0_28_139
*803 FILLER_0_28_141
*804 FILLER_0_28_15
*805 FILLER_0_28_153
*806 FILLER_0_28_165
*807 FILLER_0_28_177
*808 FILLER_0_28_189
*809 FILLER_0_28_195
*810 FILLER_0_28_197
*811 FILLER_0_28_209
*812 FILLER_0_28_221
*813 FILLER_0_28_233
*814 FILLER_0_28_245
*815 FILLER_0_28_251
*816 FILLER_0_28_253
*817 FILLER_0_28_265
*818 FILLER_0_28_27
*819 FILLER_0_28_277
*820 FILLER_0_28_289
*821 FILLER_0_28_29
*822 FILLER_0_28_3
*823 FILLER_0_28_301
*824 FILLER_0_28_307
*825 FILLER_0_28_309
*826 FILLER_0_28_321
*827 FILLER_0_28_333
*828 FILLER_0_28_345
*829 FILLER_0_28_41
*830 FILLER_0_28_53
*831 FILLER_0_28_65
*832 FILLER_0_28_77
*833 FILLER_0_28_83
*834 FILLER_0_28_85
*835 FILLER_0_28_97
*836 FILLER_0_29_105
*837 FILLER_0_29_111
*838 FILLER_0_29_113
*839 FILLER_0_29_125
*840 FILLER_0_29_137
*841 FILLER_0_29_149
*842 FILLER_0_29_15
*843 FILLER_0_29_161
*844 FILLER_0_29_167
*845 FILLER_0_29_169
*846 FILLER_0_29_181
*847 FILLER_0_29_193
*848 FILLER_0_29_205
*849 FILLER_0_29_217
*850 FILLER_0_29_223
*851 FILLER_0_29_225
*852 FILLER_0_29_237
*853 FILLER_0_29_249
*854 FILLER_0_29_261
*855 FILLER_0_29_27
*856 FILLER_0_29_273
*857 FILLER_0_29_279
*858 FILLER_0_29_281
*859 FILLER_0_29_293
*860 FILLER_0_29_3
*861 FILLER_0_29_305
*862 FILLER_0_29_317
*863 FILLER_0_29_329
*864 FILLER_0_29_335
*865 FILLER_0_29_337
*866 FILLER_0_29_349
*867 FILLER_0_29_39
*868 FILLER_0_29_51
*869 FILLER_0_29_55
*870 FILLER_0_29_57
*871 FILLER_0_29_69
*872 FILLER_0_29_81
*873 FILLER_0_29_93
*874 FILLER_0_2_109
*875 FILLER_0_2_121
*876 FILLER_0_2_133
*877 FILLER_0_2_139
*878 FILLER_0_2_141
*879 FILLER_0_2_15
*880 FILLER_0_2_153
*881 FILLER_0_2_165
*882 FILLER_0_2_177
*883 FILLER_0_2_189
*884 FILLER_0_2_195
*885 FILLER_0_2_197
*886 FILLER_0_2_209
*887 FILLER_0_2_221
*888 FILLER_0_2_233
*889 FILLER_0_2_245
*890 FILLER_0_2_251
*891 FILLER_0_2_253
*892 FILLER_0_2_265
*893 FILLER_0_2_27
*894 FILLER_0_2_277
*895 FILLER_0_2_289
*896 FILLER_0_2_29
*897 FILLER_0_2_3
*898 FILLER_0_2_301
*899 FILLER_0_2_307
*900 FILLER_0_2_309
*901 FILLER_0_2_321
*902 FILLER_0_2_333
*903 FILLER_0_2_345
*904 FILLER_0_2_41
*905 FILLER_0_2_53
*906 FILLER_0_2_65
*907 FILLER_0_2_77
*908 FILLER_0_2_83
*909 FILLER_0_2_85
*910 FILLER_0_2_97
*911 FILLER_0_30_109
*912 FILLER_0_30_121
*913 FILLER_0_30_133
*914 FILLER_0_30_139
*915 FILLER_0_30_141
*916 FILLER_0_30_15
*917 FILLER_0_30_153
*918 FILLER_0_30_165
*919 FILLER_0_30_177
*920 FILLER_0_30_189
*921 FILLER_0_30_195
*922 FILLER_0_30_197
*923 FILLER_0_30_209
*924 FILLER_0_30_221
*925 FILLER_0_30_233
*926 FILLER_0_30_245
*927 FILLER_0_30_251
*928 FILLER_0_30_253
*929 FILLER_0_30_265
*930 FILLER_0_30_27
*931 FILLER_0_30_277
*932 FILLER_0_30_289
*933 FILLER_0_30_29
*934 FILLER_0_30_3
*935 FILLER_0_30_301
*936 FILLER_0_30_307
*937 FILLER_0_30_309
*938 FILLER_0_30_321
*939 FILLER_0_30_333
*940 FILLER_0_30_345
*941 FILLER_0_30_41
*942 FILLER_0_30_53
*943 FILLER_0_30_65
*944 FILLER_0_30_77
*945 FILLER_0_30_83
*946 FILLER_0_30_85
*947 FILLER_0_30_97
*948 FILLER_0_31_105
*949 FILLER_0_31_111
*950 FILLER_0_31_113
*951 FILLER_0_31_125
*952 FILLER_0_31_137
*953 FILLER_0_31_149
*954 FILLER_0_31_15
*955 FILLER_0_31_161
*956 FILLER_0_31_167
*957 FILLER_0_31_169
*958 FILLER_0_31_181
*959 FILLER_0_31_193
*960 FILLER_0_31_205
*961 FILLER_0_31_217
*962 FILLER_0_31_223
*963 FILLER_0_31_225
*964 FILLER_0_31_237
*965 FILLER_0_31_249
*966 FILLER_0_31_261
*967 FILLER_0_31_27
*968 FILLER_0_31_273
*969 FILLER_0_31_279
*970 FILLER_0_31_281
*971 FILLER_0_31_293
*972 FILLER_0_31_3
*973 FILLER_0_31_305
*974 FILLER_0_31_317
*975 FILLER_0_31_329
*976 FILLER_0_31_335
*977 FILLER_0_31_337
*978 FILLER_0_31_349
*979 FILLER_0_31_39
*980 FILLER_0_31_51
*981 FILLER_0_31_55
*982 FILLER_0_31_57
*983 FILLER_0_31_69
*984 FILLER_0_31_81
*985 FILLER_0_31_93
*986 FILLER_0_32_109
*987 FILLER_0_32_121
*988 FILLER_0_32_133
*989 FILLER_0_32_139
*990 FILLER_0_32_141
*991 FILLER_0_32_15
*992 FILLER_0_32_153
*993 FILLER_0_32_165
*994 FILLER_0_32_177
*995 FILLER_0_32_189
*996 FILLER_0_32_195
*997 FILLER_0_32_197
*998 FILLER_0_32_209
*999 FILLER_0_32_221
*1000 FILLER_0_32_233
*1001 FILLER_0_32_245
*1002 FILLER_0_32_251
*1003 FILLER_0_32_253
*1004 FILLER_0_32_265
*1005 FILLER_0_32_27
*1006 FILLER_0_32_277
*1007 FILLER_0_32_289
*1008 FILLER_0_32_29
*1009 FILLER_0_32_3
*1010 FILLER_0_32_301
*1011 FILLER_0_32_307
*1012 FILLER_0_32_309
*1013 FILLER_0_32_321
*1014 FILLER_0_32_333
*1015 FILLER_0_32_345
*1016 FILLER_0_32_41
*1017 FILLER_0_32_53
*1018 FILLER_0_32_65
*1019 FILLER_0_32_77
*1020 FILLER_0_32_83
*1021 FILLER_0_32_85
*1022 FILLER_0_32_97
*1023 FILLER_0_33_105
*1024 FILLER_0_33_111
*1025 FILLER_0_33_113
*1026 FILLER_0_33_125
*1027 FILLER_0_33_137
*1028 FILLER_0_33_149
*1029 FILLER_0_33_15
*1030 FILLER_0_33_161
*1031 FILLER_0_33_167
*1032 FILLER_0_33_169
*1033 FILLER_0_33_181
*1034 FILLER_0_33_193
*1035 FILLER_0_33_205
*1036 FILLER_0_33_217
*1037 FILLER_0_33_223
*1038 FILLER_0_33_225
*1039 FILLER_0_33_237
*1040 FILLER_0_33_249
*1041 FILLER_0_33_261
*1042 FILLER_0_33_27
*1043 FILLER_0_33_273
*1044 FILLER_0_33_279
*1045 FILLER_0_33_281
*1046 FILLER_0_33_293
*1047 FILLER_0_33_3
*1048 FILLER_0_33_305
*1049 FILLER_0_33_317
*1050 FILLER_0_33_329
*1051 FILLER_0_33_335
*1052 FILLER_0_33_337
*1053 FILLER_0_33_349
*1054 FILLER_0_33_39
*1055 FILLER_0_33_51
*1056 FILLER_0_33_55
*1057 FILLER_0_33_57
*1058 FILLER_0_33_69
*1059 FILLER_0_33_81
*1060 FILLER_0_33_93
*1061 FILLER_0_34_109
*1062 FILLER_0_34_121
*1063 FILLER_0_34_133
*1064 FILLER_0_34_139
*1065 FILLER_0_34_141
*1066 FILLER_0_34_15
*1067 FILLER_0_34_153
*1068 FILLER_0_34_165
*1069 FILLER_0_34_177
*1070 FILLER_0_34_189
*1071 FILLER_0_34_195
*1072 FILLER_0_34_197
*1073 FILLER_0_34_209
*1074 FILLER_0_34_221
*1075 FILLER_0_34_233
*1076 FILLER_0_34_245
*1077 FILLER_0_34_251
*1078 FILLER_0_34_253
*1079 FILLER_0_34_265
*1080 FILLER_0_34_27
*1081 FILLER_0_34_277
*1082 FILLER_0_34_289
*1083 FILLER_0_34_29
*1084 FILLER_0_34_3
*1085 FILLER_0_34_301
*1086 FILLER_0_34_307
*1087 FILLER_0_34_309
*1088 FILLER_0_34_321
*1089 FILLER_0_34_333
*1090 FILLER_0_34_345
*1091 FILLER_0_34_41
*1092 FILLER_0_34_53
*1093 FILLER_0_34_65
*1094 FILLER_0_34_77
*1095 FILLER_0_34_83
*1096 FILLER_0_34_85
*1097 FILLER_0_34_97
*1098 FILLER_0_35_105
*1099 FILLER_0_35_111
*1100 FILLER_0_35_113
*1101 FILLER_0_35_125
*1102 FILLER_0_35_137
*1103 FILLER_0_35_149
*1104 FILLER_0_35_15
*1105 FILLER_0_35_161
*1106 FILLER_0_35_167
*1107 FILLER_0_35_169
*1108 FILLER_0_35_181
*1109 FILLER_0_35_193
*1110 FILLER_0_35_205
*1111 FILLER_0_35_217
*1112 FILLER_0_35_223
*1113 FILLER_0_35_225
*1114 FILLER_0_35_237
*1115 FILLER_0_35_249
*1116 FILLER_0_35_261
*1117 FILLER_0_35_27
*1118 FILLER_0_35_273
*1119 FILLER_0_35_279
*1120 FILLER_0_35_281
*1121 FILLER_0_35_293
*1122 FILLER_0_35_3
*1123 FILLER_0_35_305
*1124 FILLER_0_35_317
*1125 FILLER_0_35_329
*1126 FILLER_0_35_335
*1127 FILLER_0_35_337
*1128 FILLER_0_35_349
*1129 FILLER_0_35_39
*1130 FILLER_0_35_51
*1131 FILLER_0_35_55
*1132 FILLER_0_35_57
*1133 FILLER_0_35_69
*1134 FILLER_0_35_81
*1135 FILLER_0_35_93
*1136 FILLER_0_36_109
*1137 FILLER_0_36_121
*1138 FILLER_0_36_133
*1139 FILLER_0_36_139
*1140 FILLER_0_36_141
*1141 FILLER_0_36_15
*1142 FILLER_0_36_153
*1143 FILLER_0_36_165
*1144 FILLER_0_36_177
*1145 FILLER_0_36_189
*1146 FILLER_0_36_195
*1147 FILLER_0_36_197
*1148 FILLER_0_36_209
*1149 FILLER_0_36_221
*1150 FILLER_0_36_233
*1151 FILLER_0_36_245
*1152 FILLER_0_36_251
*1153 FILLER_0_36_253
*1154 FILLER_0_36_265
*1155 FILLER_0_36_27
*1156 FILLER_0_36_277
*1157 FILLER_0_36_289
*1158 FILLER_0_36_29
*1159 FILLER_0_36_3
*1160 FILLER_0_36_301
*1161 FILLER_0_36_307
*1162 FILLER_0_36_309
*1163 FILLER_0_36_321
*1164 FILLER_0_36_333
*1165 FILLER_0_36_345
*1166 FILLER_0_36_41
*1167 FILLER_0_36_53
*1168 FILLER_0_36_65
*1169 FILLER_0_36_77
*1170 FILLER_0_36_83
*1171 FILLER_0_36_85
*1172 FILLER_0_36_97
*1173 FILLER_0_37_105
*1174 FILLER_0_37_111
*1175 FILLER_0_37_113
*1176 FILLER_0_37_125
*1177 FILLER_0_37_137
*1178 FILLER_0_37_149
*1179 FILLER_0_37_15
*1180 FILLER_0_37_161
*1181 FILLER_0_37_167
*1182 FILLER_0_37_169
*1183 FILLER_0_37_181
*1184 FILLER_0_37_193
*1185 FILLER_0_37_205
*1186 FILLER_0_37_217
*1187 FILLER_0_37_223
*1188 FILLER_0_37_225
*1189 FILLER_0_37_237
*1190 FILLER_0_37_249
*1191 FILLER_0_37_261
*1192 FILLER_0_37_27
*1193 FILLER_0_37_273
*1194 FILLER_0_37_279
*1195 FILLER_0_37_281
*1196 FILLER_0_37_293
*1197 FILLER_0_37_3
*1198 FILLER_0_37_305
*1199 FILLER_0_37_317
*1200 FILLER_0_37_329
*1201 FILLER_0_37_335
*1202 FILLER_0_37_337
*1203 FILLER_0_37_349
*1204 FILLER_0_37_39
*1205 FILLER_0_37_51
*1206 FILLER_0_37_55
*1207 FILLER_0_37_57
*1208 FILLER_0_37_69
*1209 FILLER_0_37_81
*1210 FILLER_0_37_93
*1211 FILLER_0_38_104
*1212 FILLER_0_38_110
*1213 FILLER_0_38_116
*1214 FILLER_0_38_122
*1215 FILLER_0_38_128
*1216 FILLER_0_38_134
*1217 FILLER_0_38_141
*1218 FILLER_0_38_146
*1219 FILLER_0_38_15
*1220 FILLER_0_38_152
*1221 FILLER_0_38_158
*1222 FILLER_0_38_164
*1223 FILLER_0_38_172
*1224 FILLER_0_38_176
*1225 FILLER_0_38_182
*1226 FILLER_0_38_195
*1227 FILLER_0_38_203
*1228 FILLER_0_38_211
*1229 FILLER_0_38_223
*1230 FILLER_0_38_225
*1231 FILLER_0_38_237
*1232 FILLER_0_38_249
*1233 FILLER_0_38_253
*1234 FILLER_0_38_265
*1235 FILLER_0_38_27
*1236 FILLER_0_38_277
*1237 FILLER_0_38_281
*1238 FILLER_0_38_29
*1239 FILLER_0_38_293
*1240 FILLER_0_38_3
*1241 FILLER_0_38_302
*1242 FILLER_0_38_309
*1243 FILLER_0_38_321
*1244 FILLER_0_38_333
*1245 FILLER_0_38_337
*1246 FILLER_0_38_349
*1247 FILLER_0_38_41
*1248 FILLER_0_38_53
*1249 FILLER_0_38_57
*1250 FILLER_0_38_68
*1251 FILLER_0_38_74
*1252 FILLER_0_38_80
*1253 FILLER_0_38_88
*1254 FILLER_0_38_92
*1255 FILLER_0_38_98
*1256 FILLER_0_3_105
*1257 FILLER_0_3_111
*1258 FILLER_0_3_113
*1259 FILLER_0_3_125
*1260 FILLER_0_3_137
*1261 FILLER_0_3_149
*1262 FILLER_0_3_15
*1263 FILLER_0_3_161
*1264 FILLER_0_3_167
*1265 FILLER_0_3_169
*1266 FILLER_0_3_181
*1267 FILLER_0_3_193
*1268 FILLER_0_3_205
*1269 FILLER_0_3_217
*1270 FILLER_0_3_223
*1271 FILLER_0_3_225
*1272 FILLER_0_3_237
*1273 FILLER_0_3_249
*1274 FILLER_0_3_261
*1275 FILLER_0_3_27
*1276 FILLER_0_3_273
*1277 FILLER_0_3_279
*1278 FILLER_0_3_281
*1279 FILLER_0_3_293
*1280 FILLER_0_3_3
*1281 FILLER_0_3_305
*1282 FILLER_0_3_317
*1283 FILLER_0_3_329
*1284 FILLER_0_3_335
*1285 FILLER_0_3_337
*1286 FILLER_0_3_349
*1287 FILLER_0_3_39
*1288 FILLER_0_3_51
*1289 FILLER_0_3_55
*1290 FILLER_0_3_57
*1291 FILLER_0_3_69
*1292 FILLER_0_3_81
*1293 FILLER_0_3_93
*1294 FILLER_0_4_109
*1295 FILLER_0_4_121
*1296 FILLER_0_4_133
*1297 FILLER_0_4_139
*1298 FILLER_0_4_141
*1299 FILLER_0_4_15
*1300 FILLER_0_4_153
*1301 FILLER_0_4_165
*1302 FILLER_0_4_177
*1303 FILLER_0_4_189
*1304 FILLER_0_4_195
*1305 FILLER_0_4_197
*1306 FILLER_0_4_209
*1307 FILLER_0_4_221
*1308 FILLER_0_4_233
*1309 FILLER_0_4_245
*1310 FILLER_0_4_251
*1311 FILLER_0_4_253
*1312 FILLER_0_4_265
*1313 FILLER_0_4_27
*1314 FILLER_0_4_277
*1315 FILLER_0_4_289
*1316 FILLER_0_4_29
*1317 FILLER_0_4_3
*1318 FILLER_0_4_301
*1319 FILLER_0_4_307
*1320 FILLER_0_4_309
*1321 FILLER_0_4_321
*1322 FILLER_0_4_333
*1323 FILLER_0_4_345
*1324 FILLER_0_4_41
*1325 FILLER_0_4_53
*1326 FILLER_0_4_65
*1327 FILLER_0_4_77
*1328 FILLER_0_4_83
*1329 FILLER_0_4_85
*1330 FILLER_0_4_97
*1331 FILLER_0_5_105
*1332 FILLER_0_5_111
*1333 FILLER_0_5_113
*1334 FILLER_0_5_125
*1335 FILLER_0_5_137
*1336 FILLER_0_5_149
*1337 FILLER_0_5_15
*1338 FILLER_0_5_161
*1339 FILLER_0_5_167
*1340 FILLER_0_5_169
*1341 FILLER_0_5_181
*1342 FILLER_0_5_193
*1343 FILLER_0_5_205
*1344 FILLER_0_5_217
*1345 FILLER_0_5_223
*1346 FILLER_0_5_225
*1347 FILLER_0_5_237
*1348 FILLER_0_5_249
*1349 FILLER_0_5_261
*1350 FILLER_0_5_27
*1351 FILLER_0_5_273
*1352 FILLER_0_5_279
*1353 FILLER_0_5_281
*1354 FILLER_0_5_293
*1355 FILLER_0_5_3
*1356 FILLER_0_5_305
*1357 FILLER_0_5_317
*1358 FILLER_0_5_329
*1359 FILLER_0_5_335
*1360 FILLER_0_5_337
*1361 FILLER_0_5_349
*1362 FILLER_0_5_39
*1363 FILLER_0_5_51
*1364 FILLER_0_5_55
*1365 FILLER_0_5_57
*1366 FILLER_0_5_69
*1367 FILLER_0_5_81
*1368 FILLER_0_5_93
*1369 FILLER_0_6_109
*1370 FILLER_0_6_121
*1371 FILLER_0_6_133
*1372 FILLER_0_6_139
*1373 FILLER_0_6_141
*1374 FILLER_0_6_15
*1375 FILLER_0_6_153
*1376 FILLER_0_6_165
*1377 FILLER_0_6_177
*1378 FILLER_0_6_189
*1379 FILLER_0_6_195
*1380 FILLER_0_6_197
*1381 FILLER_0_6_209
*1382 FILLER_0_6_221
*1383 FILLER_0_6_233
*1384 FILLER_0_6_245
*1385 FILLER_0_6_251
*1386 FILLER_0_6_253
*1387 FILLER_0_6_265
*1388 FILLER_0_6_27
*1389 FILLER_0_6_277
*1390 FILLER_0_6_289
*1391 FILLER_0_6_29
*1392 FILLER_0_6_3
*1393 FILLER_0_6_301
*1394 FILLER_0_6_307
*1395 FILLER_0_6_309
*1396 FILLER_0_6_321
*1397 FILLER_0_6_333
*1398 FILLER_0_6_345
*1399 FILLER_0_6_41
*1400 FILLER_0_6_53
*1401 FILLER_0_6_65
*1402 FILLER_0_6_77
*1403 FILLER_0_6_83
*1404 FILLER_0_6_85
*1405 FILLER_0_6_97
*1406 FILLER_0_7_105
*1407 FILLER_0_7_111
*1408 FILLER_0_7_113
*1409 FILLER_0_7_125
*1410 FILLER_0_7_137
*1411 FILLER_0_7_149
*1412 FILLER_0_7_15
*1413 FILLER_0_7_161
*1414 FILLER_0_7_167
*1415 FILLER_0_7_169
*1416 FILLER_0_7_181
*1417 FILLER_0_7_193
*1418 FILLER_0_7_205
*1419 FILLER_0_7_217
*1420 FILLER_0_7_223
*1421 FILLER_0_7_225
*1422 FILLER_0_7_237
*1423 FILLER_0_7_249
*1424 FILLER_0_7_261
*1425 FILLER_0_7_27
*1426 FILLER_0_7_273
*1427 FILLER_0_7_279
*1428 FILLER_0_7_281
*1429 FILLER_0_7_293
*1430 FILLER_0_7_3
*1431 FILLER_0_7_305
*1432 FILLER_0_7_317
*1433 FILLER_0_7_329
*1434 FILLER_0_7_335
*1435 FILLER_0_7_337
*1436 FILLER_0_7_349
*1437 FILLER_0_7_39
*1438 FILLER_0_7_51
*1439 FILLER_0_7_55
*1440 FILLER_0_7_57
*1441 FILLER_0_7_69
*1442 FILLER_0_7_81
*1443 FILLER_0_7_93
*1444 FILLER_0_8_109
*1445 FILLER_0_8_121
*1446 FILLER_0_8_133
*1447 FILLER_0_8_139
*1448 FILLER_0_8_141
*1449 FILLER_0_8_15
*1450 FILLER_0_8_153
*1451 FILLER_0_8_165
*1452 FILLER_0_8_177