*SPEF "ieee 1481-1999"
*DESIGN "tt_um_digital_clock_sellicott"
*DATE "11:11:11 Fri 11 11, 1111"
*VENDOR "OpenRCX"
*PROGRAM "Parallel Extraction"
*VERSION "1.0"
*DESIGN_FLOW "NAME_SCOPE LOCAL" "PIN_CAP NONE"
*DIVIDER /
*DELIMITER :
*BUS_DELIMITER []
*T_UNIT 1 NS
*C_UNIT 1 PF
*R_UNIT 1 OHM
*L_UNIT 1 HENRY

*NAME_MAP
*3 clk
*4 ena
*5 rst_n
*6 ui_in[0]
*7 ui_in[1]
*8 ui_in[2]
*9 ui_in[3]
*10 ui_in[4]
*11 ui_in[5]
*12 ui_in[6]
*13 ui_in[7]
*14 uio_in[0]
*15 uio_in[1]
*16 uio_in[2]
*17 uio_in[3]
*18 uio_in[4]
*19 uio_in[5]
*20 uio_in[6]
*21 uio_in[7]
*22 net8
*23 net9
*24 net10
*25 net11
*26 net12
*27 net13
*28 net14
*29 net15
*30 net16
*31 net17
*32 net18
*33 net19
*34 net20
*35 net21
*36 net22
*37 net23
*38 uo_out[0]
*39 uo_out[1]
*40 uo_out[2]
*41 net24
*42 net25
*43 net26
*44 net27
*45 net28
*46 _0000_
*47 _0001_
*48 _0002_
*49 _0003_
*50 _0004_
*51 _0005_
*52 _0006_
*53 _0007_
*54 _0008_
*55 _0009_
*56 _0010_
*57 _0011_
*58 _0012_
*59 _0013_
*60 _0014_
*61 _0015_
*62 _0016_
*63 _0017_
*64 _0018_
*65 _0019_
*66 _0020_
*67 _0021_
*68 _0022_
*69 _0023_
*70 _0024_
*71 _0025_
*72 _0026_
*73 _0027_
*74 _0028_
*75 _0029_
*76 _0030_
*77 _0031_
*78 _0032_
*79 _0033_
*80 _0034_
*81 _0035_
*82 _0036_
*83 _0037_
*84 _0038_
*85 _0039_
*86 _0040_
*87 _0041_
*88 _0042_
*89 _0043_
*90 _0044_
*91 _0045_
*92 _0046_
*93 _0047_
*94 _0048_
*95 _0049_
*96 _0050_
*97 _0051_
*98 _0052_
*99 _0053_
*100 _0054_
*101 _0055_
*102 _0056_
*103 _0057_
*104 _0058_
*105 _0059_
*106 _0060_
*107 _0061_
*108 _0062_
*109 _0063_
*110 _0064_
*111 _0065_
*112 _0066_
*113 _0067_
*114 _0068_
*115 _0069_
*116 _0070_
*117 _0071_
*118 _0072_
*119 _0073_
*120 _0074_
*121 _0075_
*122 _0076_
*123 _0077_
*124 _0078_
*125 _0079_
*126 _0080_
*127 _0081_
*128 _0082_
*129 _0083_
*130 _0084_
*131 _0085_
*132 _0086_
*133 _0087_
*134 _0088_
*135 _0089_
*136 _0090_
*137 _0091_
*138 _0092_
*139 _0093_
*140 _0094_
*141 _0095_
*142 _0096_
*143 _0097_
*144 _0098_
*145 _0099_
*146 _0100_
*147 _0101_
*148 _0102_
*149 _0103_
*150 _0104_
*151 _0105_
*152 _0106_
*153 _0107_
*154 _0108_
*155 _0109_
*156 _0110_
*157 _0111_
*158 _0112_
*159 _0113_
*160 _0114_
*161 _0115_
*162 _0116_
*163 _0117_
*164 _0118_
*165 _0119_
*166 _0120_
*167 _0121_
*168 _0122_
*169 _0123_
*170 _0124_
*171 _0125_
*172 _0126_
*173 _0127_
*174 _0128_
*175 _0129_
*176 _0130_
*177 _0131_
*178 _0132_
*179 _0133_
*180 _0134_
*181 _0135_
*182 _0136_
*183 _0137_
*184 _0138_
*185 _0139_
*186 _0140_
*187 _0141_
*188 _0142_
*189 _0143_
*190 _0144_
*191 _0145_
*192 _0146_
*193 _0147_
*194 _0148_
*195 _0149_
*196 _0150_
*197 _0151_
*198 _0152_
*199 _0153_
*200 _0154_
*201 _0155_
*202 _0156_
*203 _0157_
*204 _0158_
*205 _0159_
*206 _0160_
*207 _0161_
*208 _0162_
*209 _0163_
*210 _0164_
*211 _0165_
*212 _0166_
*213 _0167_
*214 _0168_
*215 _0169_
*216 _0170_
*217 _0171_
*218 _0172_
*219 _0173_
*220 _0174_
*221 _0175_
*222 _0176_
*223 _0177_
*224 _0178_
*225 _0179_
*226 _0180_
*227 _0181_
*228 _0182_
*229 _0183_
*230 _0184_
*231 _0185_
*232 _0186_
*233 _0187_
*234 _0188_
*235 _0189_
*236 _0190_
*237 _0191_
*238 _0192_
*239 _0194_
*240 _0195_
*241 _0196_
*242 _0197_
*243 _0198_
*244 _0199_
*245 _0200_
*246 _0202_
*247 _0203_
*248 _0204_
*249 _0205_
*250 _0206_
*251 _0207_
*252 _0208_
*253 _0210_
*254 _0211_
*255 _0212_
*256 _0213_
*257 _0214_
*258 _0215_
*259 _0216_
*260 _0217_
*261 _0218_
*262 _0219_
*263 _0220_
*264 _0221_
*265 _0222_
*266 _0223_
*267 _0224_
*268 _0225_
*269 _0226_
*270 _0227_
*271 _0228_
*272 _0229_
*273 _0230_
*274 _0231_
*275 _0232_
*276 _0233_
*277 _0234_
*278 _0235_
*279 _0236_
*280 _0237_
*281 _0238_
*282 _0239_
*283 _0240_
*284 _0241_
*285 _0242_
*286 _0243_
*287 _0244_
*288 _0245_
*289 _0246_
*290 _0247_
*291 _0248_
*292 _0249_
*293 _0250_
*294 _0251_
*295 _0252_
*296 _0253_
*297 _0254_
*298 _0255_
*299 _0256_
*300 _0257_
*301 _0258_
*302 _0259_
*303 _0260_
*304 _0261_
*305 _0262_
*306 _0263_
*307 _0264_
*308 _0265_
*309 _0266_
*310 _0267_
*311 _0268_
*312 _0269_
*313 _0270_
*314 _0271_
*315 _0272_
*316 _0273_
*317 _0274_
*318 _0275_
*319 _0276_
*320 _0277_
*321 _0278_
*322 _0279_
*323 _0280_
*324 _0281_
*325 _0282_
*326 _0283_
*327 _0284_
*328 _0285_
*329 _0286_
*330 _0287_
*331 _0288_
*332 _0289_
*333 _0290_
*334 _0291_
*335 _0292_
*336 _0293_
*337 _0294_
*338 _0295_
*339 _0296_
*340 _0297_
*341 _0298_
*342 _0299_
*343 _0300_
*344 _0301_
*345 _0302_
*346 _0303_
*347 _0304_
*348 _0305_
*349 _0306_
*350 _0307_
*351 _0308_
*352 _0309_
*353 _0310_
*354 _0311_
*355 _0312_
*356 _0313_
*357 _0314_
*358 _0315_
*359 _0316_
*360 _0317_
*361 _0318_
*362 _0319_
*363 _0320_
*364 _0321_
*365 _0322_
*366 _0323_
*367 _0324_
*368 _0325_
*369 _0326_
*370 _0327_
*371 _0328_
*372 _0329_
*373 _0330_
*374 _0331_
*375 _0332_
*376 _0333_
*377 _0334_
*378 _0335_
*379 _0336_
*380 _0337_
*381 _0338_
*382 _0339_
*383 _0340_
*384 _0341_
*385 _0342_
*386 _0343_
*387 _0344_
*388 _0345_
*389 _0346_
*390 _0347_
*391 _0348_
*392 _0349_
*393 _0350_
*394 _0351_
*395 _0352_
*396 _0353_
*397 _0354_
*398 _0355_
*399 _0356_
*400 _0357_
*401 _0358_
*402 _0359_
*403 _0360_
*404 _0361_
*405 _0362_
*406 _0363_
*407 _0364_
*408 _0365_
*409 _0366_
*410 _0367_
*411 _0368_
*412 _0369_
*413 _0370_
*414 _0371_
*415 _0372_
*416 _0373_
*417 _0374_
*418 _0375_
*419 _0376_
*420 _0377_
*421 _0378_
*422 _0379_
*423 _0380_
*424 _0381_
*425 _0382_
*426 _0383_
*427 _0384_
*428 _0385_
*429 _0386_
*430 _0387_
*431 _0388_
*432 _0389_
*433 _0390_
*434 _0391_
*435 _0392_
*436 _0393_
*437 _0394_
*438 _0395_
*439 _0396_
*440 _0397_
*441 _0398_
*442 _0399_
*443 _0400_
*444 _0401_
*445 _0402_
*446 _0403_
*447 _0404_
*448 _0405_
*449 _0406_
*450 _0407_
*451 _0408_
*452 _0409_
*453 _0410_
*454 _0411_
*455 _0412_
*456 _0413_
*457 _0414_
*458 _0415_
*459 _0416_
*460 _0417_
*461 _0418_
*462 _0419_
*463 _0420_
*464 _0421_
*465 _0422_
*466 _0423_
*467 _0424_
*468 _0425_
*469 _0426_
*470 _0427_
*471 _0428_
*472 _0429_
*473 _0430_
*474 _0431_
*475 _0432_
*476 _0433_
*477 _0434_
*478 _0435_
*479 _0436_
*480 _0437_
*481 _0438_
*482 _0439_
*483 _0440_
*484 _0441_
*485 _0442_
*486 _0443_
*487 _0444_
*488 _0445_
*489 _0446_
*490 _0447_
*491 _0448_
*492 _0449_
*493 _0450_
*494 _0451_
*495 _0452_
*496 _0453_
*497 _0454_
*498 _0455_
*499 _0456_
*500 _0457_
*501 _0458_
*502 _0459_
*503 _0460_
*504 _0461_
*505 _0462_
*506 _0463_
*507 _0464_
*508 _0465_
*509 _0466_
*510 _0467_
*511 _0468_
*512 _0469_
*513 _0470_
*514 _0471_
*515 _0472_
*516 _0473_
*517 _0474_
*518 _0475_
*519 _0476_
*520 _0477_
*521 _0478_
*522 _0479_
*523 _0480_
*524 _0481_
*525 _0482_
*526 _0483_
*527 _0484_
*528 _0485_
*529 _0486_
*530 _0487_
*531 _0488_
*532 _0489_
*533 _0490_
*534 _0491_
*535 _0492_
*536 _0493_
*537 _0494_
*538 _0495_
*539 _0496_
*540 _0497_
*541 _0498_
*542 _0499_
*543 _0500_
*544 _0501_
*545 _0502_
*546 _0503_
*547 _0504_
*548 _0505_
*549 _0506_
*550 _0507_
*551 _0508_
*552 _0509_
*553 _0510_
*554 _0511_
*555 _0512_
*556 _0513_
*557 _0514_
*558 _0515_
*559 _0516_
*560 _0517_
*561 _0518_
*562 _0519_
*563 _0520_
*564 _0521_
*565 _0522_
*566 _0523_
*567 _0524_
*568 _0525_
*569 _0526_
*570 _0527_
*571 _0528_
*572 _0529_
*573 _0530_
*574 _0531_
*575 _0532_
*576 _0533_
*577 _0534_
*578 _0535_
*579 _0536_
*580 _0537_
*581 _0538_
*582 _0539_
*583 _0540_
*584 _0541_
*585 _0542_
*586 _0543_
*587 _0544_
*588 _0545_
*589 _0546_
*590 _0547_
*591 _0548_
*592 _0549_
*593 _0550_
*594 _0551_
*595 _0552_
*596 _0553_
*597 _0554_
*598 _0555_
*599 _0556_
*600 _0557_
*601 _0558_
*602 _0559_
*603 _0560_
*604 _0561_
*605 _0562_
*606 _0563_
*607 _0564_
*608 _0565_
*609 _0566_
*610 _0567_
*611 _0568_
*612 _0569_
*613 _0570_
*614 _0571_
*615 _0572_
*616 _0573_
*617 _0574_
*618 _0575_
*619 _0576_
*620 _0577_
*621 _0578_
*622 _0579_
*623 _0580_
*624 _0581_
*625 _0582_
*626 _0583_
*627 _0584_
*628 _0585_
*629 _0586_
*630 _0587_
*631 _0588_
*632 _0589_
*633 _0590_
*634 _0591_
*635 _0592_
*636 _0593_
*637 _0594_
*638 _0595_
*639 _0596_
*640 _0597_
*641 _0598_
*642 _0599_
*643 _0600_
*644 _0601_
*645 _0602_
*646 _0603_
*647 _0604_
*648 _0605_
*649 _0606_
*650 _0607_
*651 _0608_
*652 _0609_
*653 _0610_
*654 _0611_
*655 _0612_
*656 _0613_
*657 _0614_
*658 _0615_
*659 _0616_
*660 _0617_
*661 _0618_
*662 _0619_
*663 _0620_
*664 _0621_
*665 _0622_
*666 _0623_
*667 _0624_
*668 _0625_
*669 _0626_
*670 _0627_
*671 _0628_
*672 _0629_
*673 _0630_
*674 _0631_
*675 _0632_
*676 _0633_
*677 _0634_
*678 _0635_
*679 _0636_
*680 _0637_
*681 _0638_
*682 _0639_
*683 _0640_
*684 _0641_
*685 _0642_
*686 _0643_
*687 _0644_
*688 _0645_
*689 _0646_
*690 _0647_
*691 _0648_
*692 _0649_
*693 _0650_
*694 _0651_
*695 _0652_
*696 _0653_
*697 _0654_
*698 _0655_
*699 _0656_
*700 _0657_
*701 _0658_
*702 _0659_
*703 _0660_
*704 _0661_
*705 _0662_
*706 _0663_
*707 _0664_
*708 _0665_
*709 _0666_
*710 _0667_
*711 _0668_
*712 _0669_
*713 _0670_
*714 _0671_
*715 _0672_
*716 _0673_
*717 _0674_
*718 _0675_
*719 _0676_
*720 _0677_
*721 _0678_
*722 _0679_
*723 _0680_
*724 _0681_
*725 _0682_
*726 _0683_
*727 _0684_
*728 _0685_
*729 _0686_
*730 _0687_
*731 _0688_
*732 _0689_
*733 _0690_
*734 _0691_
*735 _0692_
*736 _0693_
*737 _0694_
*738 _0695_
*739 _0696_
*740 _0697_
*741 _0698_
*742 _0699_
*743 _0700_
*744 _0701_
*745 _0702_
*746 _0703_
*747 _0704_
*748 _0705_
*749 _0706_
*750 _0707_
*751 _0708_
*752 _0709_
*753 _0710_
*754 _0711_
*755 _0712_
*756 _0713_
*757 _0714_
*758 _0715_
*759 _0716_
*760 _0717_
*761 _0718_
*762 _0719_
*763 _0720_
*764 _0721_
*765 _0722_
*766 _0723_
*767 _0724_
*768 _0725_
*769 _0726_
*770 _0727_
*771 _0728_
*772 _0729_
*773 _0730_
*774 _0731_
*775 _0732_
*776 _0733_
*777 _0734_
*778 _0735_
*779 _0736_
*780 _0737_
*781 _0738_
*782 _0739_
*783 _0740_
*784 _0741_
*785 _0742_
*786 _0743_
*787 _0744_
*788 _0745_
*789 _0746_
*790 _0747_
*791 _0748_
*792 _0749_
*793 _0750_
*794 _0751_
*795 _0752_
*796 _0753_
*797 _0754_
*798 _0755_
*799 _0756_
*800 _0757_
*801 _0758_
*802 _0759_
*803 _0760_
*804 _0761_
*805 _0762_
*806 _0763_
*807 _0764_
*808 _0765_
*809 _0766_
*810 _0767_
*811 _0768_
*812 _0769_
*813 _0770_
*814 _0771_
*815 _0772_
*816 _0773_
*817 _0774_
*818 _0775_
*819 _0776_
*820 _0777_
*821 _0778_
*822 _0779_
*823 _0780_
*824 _0781_
*825 _0782_
*826 _0783_
*827 _0784_
*828 _0785_
*829 _0786_
*830 _0787_
*831 _0788_
*832 _0789_
*833 _0790_
*834 _0791_
*835 _0792_
*836 _0793_
*837 _0794_
*838 _0795_
*839 _0796_
*840 _0797_
*841 _0798_
*842 _0799_
*843 _0800_
*844 _0801_
*845 _0802_
*846 _0803_
*847 _0804_
*848 _0805_
*849 _0806_
*850 _0807_
*851 _0808_
*852 _0809_
*853 _0810_
*854 _0811_
*855 _0812_
*856 _0813_
*857 _0814_
*858 _0815_
*859 _0816_
*860 _0817_
*861 _0818_
*862 _0819_
*863 _0820_
*864 _0821_
*865 _0822_
*866 _0823_
*867 _0824_
*868 _0825_
*869 _0826_
*870 _0827_
*871 _0828_
*872 _0829_
*873 _0830_
*874 _0831_
*875 _0832_
*876 _0833_
*877 _0834_
*878 _0835_
*879 _0836_
*880 _0837_
*881 _0838_
*882 _0839_
*883 _0840_
*884 _0841_
*885 _0842_
*886 _0843_
*887 _0844_
*888 _0845_
*889 _0846_
*890 _0847_
*891 _0848_
*892 _0849_
*893 _0850_
*894 _0851_
*895 _0852_
*896 _0853_
*897 _0854_
*898 _0855_
*899 _0856_
*900 _0857_
*901 _0858_
*902 _0859_
*903 _0860_
*904 _0861_
*905 _0862_
*906 _0863_
*907 _0864_
*908 _0865_
*909 _0866_
*910 _0867_
*911 _0868_
*912 _0869_
*913 _0870_
*914 _0871_
*915 _0872_
*916 _0873_
*917 _0874_
*918 _0875_
*919 _0876_
*920 _0877_
*921 _0878_
*922 _0879_
*923 _0880_
*924 _0881_
*925 _0882_
*926 _0883_
*927 _0884_
*928 _0885_
*929 _0886_
*930 _0887_
*931 _0888_
*932 _0889_
*933 _0890_
*934 _0891_
*935 _0892_
*936 _0893_
*937 _0894_
*938 _0895_
*939 _0896_
*940 _0897_
*941 _0898_
*942 _0899_
*943 _0900_
*944 _0901_
*945 _0902_
*946 _0903_
*947 _0904_
*948 _0905_
*949 _0906_
*950 _0907_
*951 _0908_
*952 _0909_
*953 _0910_
*954 _0911_
*955 _0912_
*956 _0913_
*957 _0914_
*958 _0915_
*959 _0916_
*960 _0917_
*961 _0918_
*962 _0919_
*963 _0920_
*964 _0921_
*965 _0922_
*966 _0923_
*967 _0924_
*968 _0925_
*969 _0926_
*970 _0927_
*971 _0928_
*972 _0929_
*973 _0930_
*974 _0931_
*975 _0932_
*976 _0933_
*977 _0934_
*978 _0935_
*979 _0936_
*980 _0937_
*981 _0938_
*982 _0939_
*983 _0940_
*984 _0941_
*985 _0942_
*986 _0943_
*987 _0944_
*988 _0945_
*989 _0946_
*990 _0947_
*991 _0948_
*992 _0949_
*993 _0950_
*994 _0951_
*995 _0952_
*996 _0953_
*997 _0954_
*998 _0955_
*999 _0956_
*1000 _0957_
*1001 _0958_
*1002 _0959_
*1003 _0960_
*1004 _0961_
*1005 _0962_
*1006 _0963_
*1007 _0964_
*1008 _0965_
*1009 _0966_
*1010 _0967_
*1011 _0968_
*1012 _0969_
*1013 _0970_
*1014 _0971_
*1015 _0972_
*1016 _0973_
*1017 _0974_
*1018 _0975_
*1019 _0976_
*1020 _0977_
*1021 _0978_
*1022 _0979_
*1023 _0980_
*1024 _0981_
*1025 _0982_
*1026 _0983_
*1027 _0984_
*1028 _0985_
*1029 _0986_
*1030 _0987_
*1031 _0988_
*1032 _0989_
*1033 _0990_
*1034 _0991_
*1035 _0992_
*1036 _0993_
*1037 _0994_
*1038 _0995_
*1039 _0996_
*1040 _0997_
*1041 _0998_
*1042 _0999_
*1043 _1000_
*1044 _1001_
*1045 _1002_
*1046 _1003_
*1047 _1004_
*1048 _1005_
*1049 _1006_
*1050 _1007_
*1051 _1008_
*1052 _1009_
*1053 _1010_
*1054 _1011_
*1055 _1012_
*1056 _1013_
*1057 _1014_
*1058 _1015_
*1059 _1016_
*1060 _1017_
*1061 _1018_
*1062 _1019_
*1063 _1020_
*1064 _1021_
*1065 _1022_
*1066 _1023_
*1067 _1024_
*1068 _1025_
*1069 _1026_
*1070 _1027_
*1071 _1028_
*1072 _1029_
*1073 _1030_
*1074 _1031_
*1075 _1032_
*1076 _1033_
*1077 _1034_
*1078 _1035_
*1079 _1036_
*1080 _1037_
*1081 _1038_
*1082 _1039_
*1083 _1040_
*1084 _1041_
*1085 _1042_
*1086 _1043_
*1087 _1044_
*1088 _1045_
*1089 _1046_
*1090 _1047_
*1091 _1048_
*1092 _1049_
*1093 _1050_
*1094 _1051_
*1095 _1052_
*1096 _1053_
*1097 _1054_
*1098 _1055_
*1099 _1056_
*1100 _1057_
*1101 _1058_
*1102 _1059_
*1103 _1060_
*1104 _1061_
*1105 _1062_
*1106 _1063_
*1107 _1064_
*1108 _1065_
*1109 _1066_
*1110 _1067_
*1111 _1068_
*1112 _1069_
*1113 _1070_
*1114 _1071_
*1115 _1072_
*1116 _1073_
*1117 _1074_
*1118 _1075_
*1119 _1076_
*1120 _1077_
*1121 _1078_
*1122 _1079_
*1123 _1080_
*1124 _1081_
*1125 _1082_
*1126 _1083_
*1127 _1084_
*1128 _1085_
*1129 _1086_
*1130 _1087_
*1131 _1088_
*1132 _1089_
*1133 _1090_
*1134 _1091_
*1135 _1092_
*1136 _1093_
*1137 _1094_
*1138 _1095_
*1139 _1096_
*1140 _1097_
*1141 _1098_
*1142 _1099_
*1143 _1100_
*1144 _1101_
*1145 _1102_
*1146 _1103_
*1147 _1104_
*1148 _1105_
*1149 _1106_
*1150 _1107_
*1151 _1108_
*1152 _1109_
*1153 _1110_
*1154 _1111_
*1155 _1112_
*1156 _1113_
*1157 _1114_
*1158 _1115_
*1159 _1116_
*1160 _1117_
*1161 _1118_
*1162 _1119_
*1163 _1120_
*1164 _1121_
*1165 _1122_
*1166 _1123_
*1167 _1124_
*1168 _1125_
*1169 _1126_
*1170 _1127_
*1171 _1128_
*1172 _1129_
*1173 _1130_
*1174 _1131_
*1175 _1132_
*1176 _1133_
*1177 _1134_
*1178 _1135_
*1179 _1136_
*1180 _1137_
*1181 _1138_
*1182 _1139_
*1183 _1140_
*1184 _1141_
*1185 _1142_
*1186 _1143_
*1187 _1144_
*1188 _1145_
*1189 _1146_
*1190 _1147_
*1191 _1148_
*1192 _1149_
*1193 _1150_
*1194 _1151_
*1195 _1152_
*1196 _1153_
*1197 _1154_
*1198 _1155_
*1199 _1156_
*1200 _1157_
*1201 _1158_
*1202 _1159_
*1203 _1160_
*1204 _1161_
*1205 _1162_
*1206 _1163_
*1207 _1164_
*1208 _1165_
*1209 _1166_
*1210 _1167_
*1211 _1168_
*1212 _1169_
*1213 _1170_
*1214 _1171_
*1215 _1172_
*1216 _1173_
*1217 _1174_
*1218 _1175_
*1219 _1176_
*1220 _1177_
*1221 _1178_
*1222 _1179_
*1223 _1180_
*1224 _1181_
*1225 _1182_
*1226 _1183_
*1227 _1184_
*1228 _1185_
*1229 _1186_
*1230 _1187_
*1231 _1188_
*1232 _1189_
*1233 _1190_
*1234 _1191_
*1235 _1192_
*1236 _1193_
*1237 _1194_
*1238 _1195_
*1239 _1196_
*1240 _1197_
*1241 _1198_
*1242 _1199_
*1243 _1200_
*1244 _1201_
*1245 _1202_
*1246 _1203_
*1247 _1204_
*1248 _1205_
*1249 _1206_
*1250 _1207_
*1251 _1208_
*1252 _1209_
*1253 _1210_
*1254 _1211_
*1255 _1212_
*1256 _1213_
*1257 _1214_
*1258 _1215_
*1259 _1216_
*1260 _1217_
*1261 _1218_
*1262 _1219_
*1263 _1220_
*1264 _1221_
*1265 _1222_
*1266 _1223_
*1267 _1224_
*1268 _1225_
*1269 _1226_
*1270 _1227_
*1271 _1228_
*1272 _1229_
*1273 _1230_
*1274 _1231_
*1275 _1232_
*1276 _1233_
*1277 _1234_
*1278 _1235_
*1279 clknet_0_clk
*1280 clknet_1_0__leaf_clk
*1281 clknet_1_1__leaf_clk
*1282 clknet_leaf_0_clk
*1283 clknet_leaf_10_clk
*1284 clknet_leaf_11_clk
*1285 clknet_leaf_12_clk
*1286 clknet_leaf_13_clk
*1287 clknet_leaf_14_clk
*1288 clknet_leaf_15_clk
*1289 clknet_leaf_16_clk
*1290 clknet_leaf_17_clk
*1291 clknet_leaf_18_clk
*1292 clknet_leaf_19_clk
*1293 clknet_leaf_1_clk
*1294 clknet_leaf_20_clk
*1295 clknet_leaf_21_clk
*1296 clknet_leaf_22_clk
*1297 clknet_leaf_23_clk
*1298 clknet_leaf_24_clk
*1299 clknet_leaf_25_clk
*1300 clknet_leaf_2_clk
*1301 clknet_leaf_3_clk
*1302 clknet_leaf_4_clk
*1303 clknet_leaf_5_clk
*1304 clknet_leaf_6_clk
*1305 clknet_leaf_7_clk
*1306 clknet_leaf_8_clk
*1307 clknet_leaf_9_clk
*1308 clock_inst\.clk_1hz
*1309 clock_inst\.clock_gen_inst\.sysclk_div_inst\.counter\[10\]
*1310 clock_inst\.clock_gen_inst\.sysclk_div_inst\.counter\[11\]
*1311 clock_inst\.clock_gen_inst\.sysclk_div_inst\.counter\[12\]
*1312 clock_inst\.clock_gen_inst\.sysclk_div_inst\.counter\[13\]
*1313 clock_inst\.clock_gen_inst\.sysclk_div_inst\.counter\[14\]
*1314 clock_inst\.clock_gen_inst\.sysclk_div_inst\.counter\[15\]
*1315 clock_inst\.clock_gen_inst\.sysclk_div_inst\.counter\[16\]
*1316 clock_inst\.clock_gen_inst\.sysclk_div_inst\.counter\[17\]
*1317 clock_inst\.clock_gen_inst\.sysclk_div_inst\.counter\[18\]
*1318 clock_inst\.clock_gen_inst\.sysclk_div_inst\.counter\[19\]
*1319 clock_inst\.clock_gen_inst\.sysclk_div_inst\.counter\[1\]
*1320 clock_inst\.clock_gen_inst\.sysclk_div_inst\.counter\[20\]
*1321 clock_inst\.clock_gen_inst\.sysclk_div_inst\.counter\[21\]
*1322 clock_inst\.clock_gen_inst\.sysclk_div_inst\.counter\[22\]
*1323 clock_inst\.clock_gen_inst\.sysclk_div_inst\.counter\[23\]
*1324 clock_inst\.clock_gen_inst\.sysclk_div_inst\.counter\[24\]
*1325 clock_inst\.clock_gen_inst\.sysclk_div_inst\.counter\[25\]
*1326 clock_inst\.clock_gen_inst\.sysclk_div_inst\.counter\[26\]
*1327 clock_inst\.clock_gen_inst\.sysclk_div_inst\.counter\[27\]
*1328 clock_inst\.clock_gen_inst\.sysclk_div_inst\.counter\[28\]
*1329 clock_inst\.clock_gen_inst\.sysclk_div_inst\.counter\[29\]
*1330 clock_inst\.clock_gen_inst\.sysclk_div_inst\.counter\[2\]
*1331 clock_inst\.clock_gen_inst\.sysclk_div_inst\.counter\[30\]
*1332 clock_inst\.clock_gen_inst\.sysclk_div_inst\.counter\[3\]
*1333 clock_inst\.clock_gen_inst\.sysclk_div_inst\.counter\[4\]
*1334 clock_inst\.clock_gen_inst\.sysclk_div_inst\.counter\[5\]
*1335 clock_inst\.clock_gen_inst\.sysclk_div_inst\.counter\[6\]
*1336 clock_inst\.clock_gen_inst\.sysclk_div_inst\.counter\[7\]
*1337 clock_inst\.clock_gen_inst\.sysclk_div_inst\.counter\[8\]
*1338 clock_inst\.clock_gen_inst\.sysclk_div_inst\.counter\[9\]
*1339 clock_inst\.clock_gen_inst\.sysclk_div_inst\.prev_out
*1340 clock_inst\.clock_gen_inst\.timeset_div_inst\.div
*1341 clock_inst\.clock_gen_inst\.timeset_div_inst\.divider_inst\.counter\[0\]
*1342 clock_inst\.clock_gen_inst\.timeset_div_inst\.divider_inst\.counter\[10\]
*1343 clock_inst\.clock_gen_inst\.timeset_div_inst\.divider_inst\.counter\[11\]
*1344 clock_inst\.clock_gen_inst\.timeset_div_inst\.divider_inst\.counter\[12\]
*1345 clock_inst\.clock_gen_inst\.timeset_div_inst\.divider_inst\.counter\[13\]
*1346 clock_inst\.clock_gen_inst\.timeset_div_inst\.divider_inst\.counter\[14\]
*1347 clock_inst\.clock_gen_inst\.timeset_div_inst\.divider_inst\.counter\[15\]
*1348 clock_inst\.clock_gen_inst\.timeset_div_inst\.divider_inst\.counter\[16\]
*1349 clock_inst\.clock_gen_inst\.timeset_div_inst\.divider_inst\.counter\[17\]
*1350 clock_inst\.clock_gen_inst\.timeset_div_inst\.divider_inst\.counter\[18\]
*1351 clock_inst\.clock_gen_inst\.timeset_div_inst\.divider_inst\.counter\[19\]
*1352 clock_inst\.clock_gen_inst\.timeset_div_inst\.divider_inst\.counter\[1\]
*1353 clock_inst\.clock_gen_inst\.timeset_div_inst\.divider_inst\.counter\[20\]
*1354 clock_inst\.clock_gen_inst\.timeset_div_inst\.divider_inst\.counter\[21\]
*1355 clock_inst\.clock_gen_inst\.timeset_div_inst\.divider_inst\.counter\[22\]
*1356 clock_inst\.clock_gen_inst\.timeset_div_inst\.divider_inst\.counter\[23\]
*1357 clock_inst\.clock_gen_inst\.timeset_div_inst\.divider_inst\.counter\[2\]
*1358 clock_inst\.clock_gen_inst\.timeset_div_inst\.divider_inst\.counter\[3\]
*1359 clock_inst\.clock_gen_inst\.timeset_div_inst\.divider_inst\.counter\[4\]
*1360 clock_inst\.clock_gen_inst\.timeset_div_inst\.divider_inst\.counter\[5\]
*1361 clock_inst\.clock_gen_inst\.timeset_div_inst\.divider_inst\.counter\[6\]
*1362 clock_inst\.clock_gen_inst\.timeset_div_inst\.divider_inst\.counter\[7\]
*1363 clock_inst\.clock_gen_inst\.timeset_div_inst\.divider_inst\.counter\[8\]
*1364 clock_inst\.clock_gen_inst\.timeset_div_inst\.divider_inst\.counter\[9\]
*1365 clock_inst\.clock_gen_inst\.timeset_div_inst\.divider_inst\.incriment\[2\]
*1366 clock_inst\.clock_gen_inst\.timeset_div_inst\.divider_inst\.incriment\[5\]
*1367 clock_inst\.clock_gen_inst\.timeset_div_inst\.divider_inst\.prev_out
*1368 clock_inst\.clock_inst\.time_reg_inst\.hours_count
*1369 clock_inst\.clock_inst\.time_reg_inst\.hours_count_inst\.counter\[0\]
*1370 clock_inst\.clock_inst\.time_reg_inst\.hours_count_inst\.counter\[1\]
*1371 clock_inst\.clock_inst\.time_reg_inst\.hours_count_inst\.counter\[2\]
*1372 clock_inst\.clock_inst\.time_reg_inst\.hours_count_inst\.counter\[3\]
*1373 clock_inst\.clock_inst\.time_reg_inst\.hours_count_inst\.counter\[4\]
*1374 clock_inst\.clock_inst\.time_reg_inst\.minutes_count
*1375 clock_inst\.clock_inst\.time_reg_inst\.minutes_count_inst\.counter\[0\]
*1376 clock_inst\.clock_inst\.time_reg_inst\.minutes_count_inst\.counter\[1\]
*1377 clock_inst\.clock_inst\.time_reg_inst\.minutes_count_inst\.counter\[2\]
*1378 clock_inst\.clock_inst\.time_reg_inst\.minutes_count_inst\.counter\[3\]
*1379 clock_inst\.clock_inst\.time_reg_inst\.minutes_count_inst\.counter\[4\]
*1380 clock_inst\.clock_inst\.time_reg_inst\.minutes_count_inst\.counter\[5\]
*1381 clock_inst\.clock_inst\.time_reg_inst\.seconds_count
*1382 clock_inst\.clock_inst\.time_reg_inst\.seconds_count_inst\.counter\[0\]
*1383 clock_inst\.clock_inst\.time_reg_inst\.seconds_count_inst\.counter\[1\]
*1384 clock_inst\.clock_inst\.time_reg_inst\.seconds_count_inst\.counter\[2\]
*1385 clock_inst\.clock_inst\.time_reg_inst\.seconds_count_inst\.counter\[3\]
*1386 clock_inst\.clock_inst\.time_reg_inst\.seconds_count_inst\.counter\[4\]
*1387 clock_inst\.clock_inst\.time_reg_inst\.seconds_count_inst\.counter\[5\]
*1388 clock_inst\.clock_inst\.time_reg_inst\.seconds_reset
*1389 clock_inst\.colon_blink
*1390 clock_inst\.disp_out\.hours_lsb_reg\[0\]
*1391 clock_inst\.disp_out\.hours_lsb_reg\[1\]
*1392 clock_inst\.disp_out\.hours_lsb_reg\[2\]
*1393 clock_inst\.disp_out\.hours_lsb_reg\[3\]
*1394 clock_inst\.disp_out\.hours_msb_reg\[0\]
*1395 clock_inst\.disp_out\.hours_msb_reg\[1\]
*1396 clock_inst\.disp_out\.hours_msb_reg\[2\]
*1397 clock_inst\.disp_out\.minutes_lsb_reg\[0\]
*1398 clock_inst\.disp_out\.minutes_lsb_reg\[1\]
*1399 clock_inst\.disp_out\.minutes_lsb_reg\[2\]
*1400 clock_inst\.disp_out\.minutes_lsb_reg\[3\]
*1401 clock_inst\.disp_out\.minutes_msb_reg\[0\]
*1402 clock_inst\.disp_out\.minutes_msb_reg\[1\]
*1403 clock_inst\.disp_out\.minutes_msb_reg\[2\]
*1404 clock_inst\.disp_out\.minutes_msb_reg\[3\]
*1405 clock_inst\.disp_out\.o_seconds_lsb\[0\]
*1406 clock_inst\.disp_out\.o_seconds_lsb\[1\]
*1407 clock_inst\.disp_out\.o_seconds_lsb\[2\]
*1408 clock_inst\.disp_out\.o_seconds_lsb\[3\]
*1409 clock_inst\.disp_out\.o_seconds_msb\[0\]
*1410 clock_inst\.disp_out\.o_seconds_msb\[1\]
*1411 clock_inst\.disp_out\.o_seconds_msb\[2\]
*1412 clock_inst\.disp_out\.o_seconds_msb\[3\]
*1413 clock_inst\.mode0_db_inst\.sample_ext
*1414 clock_inst\.mode0_db_inst\.sample_pipe
*1415 clock_inst\.mode0_db_inst\.samples\[0\]
*1416 clock_inst\.mode0_db_inst\.samples\[1\]
*1417 clock_inst\.mode0_db_inst\.samples\[2\]
*1418 clock_inst\.mode0_db_inst\.samples\[3\]
*1419 clock_inst\.mode0_db_inst\.samples\[4\]
*1420 clock_inst\.mode1_db_inst\.sample_ext
*1421 clock_inst\.mode1_db_inst\.sample_pipe
*1422 clock_inst\.mode1_db_inst\.samples\[0\]
*1423 clock_inst\.mode1_db_inst\.samples\[1\]
*1424 clock_inst\.mode1_db_inst\.samples\[2\]
*1425 clock_inst\.mode1_db_inst\.samples\[3\]
*1426 clock_inst\.mode1_db_inst\.samples\[4\]
*1427 clock_inst\.o_serial_clk
*1428 clock_inst\.o_serial_data
*1429 clock_inst\.o_serial_latch
*1430 clock_inst\.refclk_div_inst\.counter\[0\]
*1431 clock_inst\.refclk_div_inst\.counter\[10\]
*1432 clock_inst\.refclk_div_inst\.counter\[1\]
*1433 clock_inst\.refclk_div_inst\.counter\[2\]
*1434 clock_inst\.refclk_div_inst\.counter\[3\]
*1435 clock_inst\.refclk_div_inst\.counter\[4\]
*1436 clock_inst\.refclk_div_inst\.counter\[5\]
*1437 clock_inst\.refclk_div_inst\.counter\[6\]
*1438 clock_inst\.refclk_div_inst\.counter\[7\]
*1439 clock_inst\.refclk_div_inst\.counter\[8\]
*1440 clock_inst\.refclk_div_inst\.counter\[9\]
*1441 clock_inst\.refclk_gen_inst\.refclk_div_inst\.counter\[0\]
*1442 clock_inst\.refclk_gen_inst\.refclk_div_inst\.counter\[10\]
*1443 clock_inst\.refclk_gen_inst\.refclk_div_inst\.counter\[11\]
*1444 clock_inst\.refclk_gen_inst\.refclk_div_inst\.counter\[12\]
*1445 clock_inst\.refclk_gen_inst\.refclk_div_inst\.counter\[13\]
*1446 clock_inst\.refclk_gen_inst\.refclk_div_inst\.counter\[14\]
*1447 clock_inst\.refclk_gen_inst\.refclk_div_inst\.counter\[15\]
*1448 clock_inst\.refclk_gen_inst\.refclk_div_inst\.counter\[1\]
*1449 clock_inst\.refclk_gen_inst\.refclk_div_inst\.counter\[2\]
*1450 clock_inst\.refclk_gen_inst\.refclk_div_inst\.counter\[3\]
*1451 clock_inst\.refclk_gen_inst\.refclk_div_inst\.counter\[4\]
*1452 clock_inst\.refclk_gen_inst\.refclk_div_inst\.counter\[5\]
*1453 clock_inst\.refclk_gen_inst\.refclk_div_inst\.counter\[6\]
*1454 clock_inst\.refclk_gen_inst\.refclk_div_inst\.counter\[7\]
*1455 clock_inst\.refclk_gen_inst\.refclk_div_inst\.counter\[8\]
*1456 clock_inst\.refclk_gen_inst\.refclk_div_inst\.counter\[9\]
*1457 clock_inst\.refclk_gen_inst\.refclk_ext
*1458 clock_inst\.refclk_gen_inst\.refclk_pipe0
*1459 clock_inst\.refclk_gen_inst\.refclk_pipe1
*1460 clock_inst\.shift_out_inst\.clk_div
*1461 clock_inst\.shift_out_inst\.i_start_stb
*1462 clock_inst\.shift_out_inst\.shift_out_inst\.serial_data\[0\]
*1463 clock_inst\.shift_out_inst\.shift_out_inst\.serial_data\[10\]
*1464 clock_inst\.shift_out_inst\.shift_out_inst\.serial_data\[11\]
*1465 clock_inst\.shift_out_inst\.shift_out_inst\.serial_data\[12\]
*1466 clock_inst\.shift_out_inst\.shift_out_inst\.serial_data\[13\]
*1467 clock_inst\.shift_out_inst\.shift_out_inst\.serial_data\[14\]
*1468 clock_inst\.shift_out_inst\.shift_out_inst\.serial_data\[15\]
*1469 clock_inst\.shift_out_inst\.shift_out_inst\.serial_data\[16\]
*1470 clock_inst\.shift_out_inst\.shift_out_inst\.serial_data\[17\]
*1471 clock_inst\.shift_out_inst\.shift_out_inst\.serial_data\[18\]
*1472 clock_inst\.shift_out_inst\.shift_out_inst\.serial_data\[19\]
*1473 clock_inst\.shift_out_inst\.shift_out_inst\.serial_data\[1\]
*1474 clock_inst\.shift_out_inst\.shift_out_inst\.serial_data\[20\]
*1475 clock_inst\.shift_out_inst\.shift_out_inst\.serial_data\[21\]
*1476 clock_inst\.shift_out_inst\.shift_out_inst\.serial_data\[22\]
*1477 clock_inst\.shift_out_inst\.shift_out_inst\.serial_data\[23\]
*1478 clock_inst\.shift_out_inst\.shift_out_inst\.serial_data\[24\]
*1479 clock_inst\.shift_out_inst\.shift_out_inst\.serial_data\[25\]
*1480 clock_inst\.shift_out_inst\.shift_out_inst\.serial_data\[26\]
*1481 clock_inst\.shift_out_inst\.shift_out_inst\.serial_data\[27\]
*1482 clock_inst\.shift_out_inst\.shift_out_inst\.serial_data\[28\]
*1483 clock_inst\.shift_out_inst\.shift_out_inst\.serial_data\[29\]
*1484 clock_inst\.shift_out_inst\.shift_out_inst\.serial_data\[2\]
*1485 clock_inst\.shift_out_inst\.shift_out_inst\.serial_data\[30\]
*1486 clock_inst\.shift_out_inst\.shift_out_inst\.serial_data\[31\]
*1487 clock_inst\.shift_out_inst\.shift_out_inst\.serial_data\[32\]
*1488 clock_inst\.shift_out_inst\.shift_out_inst\.serial_data\[33\]
*1489 clock_inst\.shift_out_inst\.shift_out_inst\.serial_data\[34\]
*1490 clock_inst\.shift_out_inst\.shift_out_inst\.serial_data\[35\]
*1491 clock_inst\.shift_out_inst\.shift_out_inst\.serial_data\[36\]
*1492 clock_inst\.shift_out_inst\.shift_out_inst\.serial_data\[37\]
*1493 clock_inst\.shift_out_inst\.shift_out_inst\.serial_data\[38\]
*1494 clock_inst\.shift_out_inst\.shift_out_inst\.serial_data\[39\]
*1495 clock_inst\.shift_out_inst\.shift_out_inst\.serial_data\[3\]
*1496 clock_inst\.shift_out_inst\.shift_out_inst\.serial_data\[40\]
*1497 clock_inst\.shift_out_inst\.shift_out_inst\.serial_data\[41\]
*1498 clock_inst\.shift_out_inst\.shift_out_inst\.serial_data\[42\]
*1499 clock_inst\.shift_out_inst\.shift_out_inst\.serial_data\[43\]
*1500 clock_inst\.shift_out_inst\.shift_out_inst\.serial_data\[44\]
*1501 clock_inst\.shift_out_inst\.shift_out_inst\.serial_data\[45\]
*1502 clock_inst\.shift_out_inst\.shift_out_inst\.serial_data\[46\]
*1503 clock_inst\.shift_out_inst\.shift_out_inst\.serial_data\[4\]
*1504 clock_inst\.shift_out_inst\.shift_out_inst\.serial_data\[5\]
*1505 clock_inst\.shift_out_inst\.shift_out_inst\.serial_data\[6\]
*1506 clock_inst\.shift_out_inst\.shift_out_inst\.serial_data\[7\]
*1507 clock_inst\.shift_out_inst\.shift_out_inst\.serial_data\[8\]
*1508 clock_inst\.shift_out_inst\.shift_out_inst\.serial_data\[9\]
*1509 clock_inst\.shift_out_inst\.shift_out_inst\.state\[0\]
*1510 clock_inst\.shift_out_inst\.shift_out_inst\.state\[1\]
*1511 clock_inst\.shift_out_inst\.shift_out_inst\.transfer_state\[0\]
*1512 clock_inst\.shift_out_inst\.shift_out_inst\.transfer_state\[10\]
*1513 clock_inst\.shift_out_inst\.shift_out_inst\.transfer_state\[11\]
*1514 clock_inst\.shift_out_inst\.shift_out_inst\.transfer_state\[12\]
*1515 clock_inst\.shift_out_inst\.shift_out_inst\.transfer_state\[13\]
*1516 clock_inst\.shift_out_inst\.shift_out_inst\.transfer_state\[14\]
*1517 clock_inst\.shift_out_inst\.shift_out_inst\.transfer_state\[15\]
*1518 clock_inst\.shift_out_inst\.shift_out_inst\.transfer_state\[16\]
*1519 clock_inst\.shift_out_inst\.shift_out_inst\.transfer_state\[17\]
*1520 clock_inst\.shift_out_inst\.shift_out_inst\.transfer_state\[18\]