*SPEF "ieee 1481-1999"
*DESIGN "tt_um_vga_clock"
*DATE "11:11:11 Fri 11 11, 1111"
*VENDOR "OpenRCX"
*PROGRAM "Parallel Extraction"
*VERSION "1.0"
*DESIGN_FLOW "NAME_SCOPE LOCAL" "PIN_CAP NONE"
*DIVIDER /
*DELIMITER :
*BUS_DELIMITER []
*T_UNIT 1 NS
*C_UNIT 1 PF
*R_UNIT 1 OHM
*L_UNIT 1 HENRY

*NAME_MAP
*3 clk
*4 ena
*5 rst_n
*6 ui_in[0]
*7 ui_in[1]
*8 ui_in[2]
*9 ui_in[3]
*10 ui_in[4]
*11 ui_in[5]
*12 ui_in[6]
*13 ui_in[7]
*14 uio_in[0]
*15 uio_in[1]
*16 uio_in[2]
*17 uio_in[3]
*18 uio_in[4]
*19 uio_in[5]
*20 uio_in[6]
*21 uio_in[7]
*22 net9
*23 net10
*24 net11
*25 net12
*26 net13
*27 net14
*28 net15
*29 net16
*30 net17
*31 net18
*32 net19
*33 net20
*34 net21
*35 net22
*36 net23
*37 net24
*38 uo_out[0]
*39 uo_out[1]
*40 uo_out[2]
*41 uo_out[3]
*42 uo_out[4]
*43 uo_out[5]
*44 uo_out[6]
*45 uo_out[7]
*46 _0000_
*47 _0001_
*48 _0002_
*49 _0003_
*50 _0004_
*51 _0005_
*52 _0006_
*53 _0007_
*54 _0008_
*55 _0009_
*56 _0010_
*57 _0011_
*58 _0012_
*59 _0013_
*60 _0014_
*61 _0015_
*62 _0016_
*63 _0017_
*64 _0018_
*65 _0019_
*66 _0020_
*67 _0021_
*68 _0022_
*69 _0023_
*70 _0024_
*71 _0025_
*72 _0026_
*73 _0027_
*74 _0028_
*75 _0029_
*76 _0030_
*77 _0031_
*78 _0032_
*79 _0033_
*80 _0034_
*81 _0035_
*82 _0036_
*83 _0037_
*84 _0038_
*85 _0039_
*86 _0040_
*87 _0041_
*88 _0042_
*89 _0043_
*90 _0044_
*91 _0045_
*92 _0046_
*93 _0047_
*94 _0048_
*95 _0049_
*96 _0050_
*97 _0051_
*98 _0052_
*99 _0053_
*100 _0054_
*101 _0055_
*102 _0056_
*103 _0057_
*104 _0058_
*105 _0059_
*106 _0060_
*107 _0061_
*108 _0062_
*109 _0063_
*110 _0064_
*111 _0065_
*112 _0066_
*113 _0067_
*114 _0068_
*115 _0069_
*116 _0070_
*117 _0071_
*118 _0072_
*119 _0073_
*120 _0074_
*121 _0075_
*122 _0076_
*123 _0077_
*124 _0078_
*125 _0079_
*126 _0080_
*127 _0081_
*128 _0082_
*129 _0083_
*130 _0084_
*131 _0085_
*132 _0086_
*133 _0087_
*134 _0088_
*135 _0089_
*136 _0090_
*137 _0091_
*138 _0092_
*139 _0093_
*140 _0094_
*141 _0095_
*142 _0096_
*143 _0097_
*144 _0098_
*145 _0099_
*146 _0100_
*147 _0101_
*148 _0102_
*149 _0103_
*150 _0104_
*151 _0105_
*152 _0106_
*153 _0107_
*154 _0108_
*155 _0109_
*156 _0110_
*157 _0111_
*158 _0112_
*159 _0113_
*160 _0114_
*161 _0115_
*162 _0116_
*163 _0117_
*164 _0118_
*165 _0119_
*166 _0120_
*167 _0121_
*168 _0122_
*169 _0123_
*170 _0124_
*171 _0125_
*172 _0126_
*173 _0127_
*174 _0128_
*175 _0129_
*176 _0130_
*177 _0131_
*178 _0132_
*179 _0133_
*180 _0134_
*181 _0135_
*182 _0136_
*183 _0137_
*184 _0138_
*185 _0139_
*186 _0140_
*187 _0141_
*188 _0142_
*189 _0143_
*190 _0144_
*191 _0145_
*192 _0146_
*193 _0147_
*194 _0148_
*195 _0149_
*196 _0150_
*197 _0151_
*198 _0152_
*199 _0153_
*200 _0154_
*201 _0155_
*202 _0156_
*203 _0157_
*204 _0158_
*205 _0159_
*206 _0160_
*207 _0161_
*208 _0162_
*209 _0163_
*210 _0164_
*211 _0165_
*212 _0166_
*213 _0167_
*214 _0168_
*215 _0169_
*216 _0170_
*217 _0171_
*218 _0172_
*219 _0173_
*220 _0174_
*221 _0175_
*222 _0176_
*223 _0177_
*224 _0178_
*225 _0179_
*226 _0180_
*227 _0181_
*228 _0182_
*229 _0183_
*230 _0184_
*231 _0185_
*232 _0186_
*233 _0187_
*234 _0188_
*235 _0189_
*236 _0190_
*237 _0191_
*238 _0192_
*239 _0193_
*240 _0194_
*241 _0195_
*242 _0196_
*243 _0197_
*244 _0198_
*245 _0199_
*246 _0200_
*247 _0201_
*248 _0202_
*249 _0203_
*250 _0204_
*251 _0205_
*252 _0206_
*253 _0207_
*254 _0208_
*255 _0209_
*256 _0210_
*257 _0211_
*258 _0212_
*259 _0213_
*260 _0214_
*261 _0215_
*262 _0216_
*263 _0217_
*264 _0218_
*265 _0219_
*266 _0220_
*267 _0221_
*268 _0222_
*269 _0223_
*270 _0224_
*271 _0225_
*272 _0226_
*273 _0227_
*274 _0228_
*275 _0229_
*276 _0230_
*277 _0231_
*278 _0232_
*279 _0233_
*280 _0234_
*281 _0235_
*282 _0236_
*283 _0237_
*284 _0238_
*285 _0239_
*286 _0240_
*287 _0241_
*288 _0242_
*289 _0243_
*290 _0244_
*291 _0245_
*292 _0246_
*293 _0247_
*294 _0248_
*295 _0249_
*296 _0250_
*297 _0251_
*298 _0252_
*299 _0253_
*300 _0254_
*301 _0255_
*302 _0256_
*303 _0257_
*304 _0258_
*305 _0259_
*306 _0260_
*307 _0261_
*308 _0262_
*309 _0263_
*310 _0264_
*311 _0265_
*312 _0266_
*313 _0267_
*314 _0268_
*315 _0269_
*316 _0270_
*317 _0271_
*318 _0272_
*319 _0273_
*320 _0274_
*321 _0275_
*322 _0276_
*323 _0277_
*324 _0278_
*325 _0279_
*326 _0280_
*327 _0281_
*328 _0282_
*329 _0283_
*330 _0284_
*331 _0285_
*332 _0286_
*333 _0287_
*334 _0288_
*335 _0289_
*336 _0290_
*337 _0291_
*338 _0292_
*339 _0293_
*340 _0294_
*341 _0295_
*342 _0296_
*343 _0297_
*344 _0298_
*345 _0299_
*346 _0300_
*347 _0301_
*348 _0302_
*349 _0303_
*350 _0304_
*351 _0305_
*352 _0306_
*353 _0307_
*354 _0308_
*355 _0309_
*356 _0310_
*357 _0311_
*358 _0312_
*359 _0313_
*360 _0314_
*361 _0315_
*362 _0316_
*363 _0317_
*364 _0318_
*365 _0319_
*366 _0320_
*367 _0321_
*368 _0322_
*369 _0323_
*370 _0324_
*371 _0325_
*372 _0326_
*373 _0327_
*374 _0328_
*375 _0329_
*376 _0330_
*377 _0331_
*378 _0332_
*379 _0333_
*380 _0334_
*381 _0335_
*382 _0336_
*383 _0337_
*384 _0338_
*385 _0339_
*386 _0340_
*387 _0341_
*388 _0342_
*389 _0343_
*390 _0344_
*391 _0345_
*392 _0346_
*393 _0347_
*394 _0348_
*395 _0349_
*396 _0350_
*397 _0351_
*398 _0352_
*399 _0353_
*400 _0354_
*401 _0355_
*402 _0356_
*403 _0357_
*404 _0358_
*405 _0359_
*406 _0360_
*407 _0361_
*408 _0362_
*409 _0363_
*410 _0364_
*411 _0365_
*412 _0366_
*413 _0367_
*414 _0368_
*415 _0369_
*416 _0370_
*417 _0371_
*418 _0372_
*419 _0373_
*420 _0374_
*421 _0375_
*422 _0376_
*423 _0377_
*424 _0378_
*425 _0379_
*426 _0380_
*427 _0381_
*428 _0382_
*429 _0383_
*430 _0384_
*431 _0385_
*432 _0386_
*433 _0387_
*434 _0388_
*435 _0389_
*436 _0390_
*437 _0391_
*438 _0392_
*439 _0393_
*440 _0394_
*441 _0395_
*442 _0396_
*443 _0397_
*444 _0398_
*445 _0399_
*446 _0400_
*447 _0401_
*448 _0402_
*449 _0403_
*450 _0404_
*451 _0405_
*452 _0406_
*453 _0407_
*454 _0408_
*455 _0409_
*456 _0410_
*457 _0411_
*458 _0412_
*459 _0413_
*460 _0414_
*461 _0415_
*462 _0416_
*463 _0417_
*464 _0418_
*465 _0419_
*466 _0420_
*467 _0421_
*468 _0422_
*469 _0423_
*470 _0424_
*471 _0425_
*472 _0426_
*473 _0427_
*474 _0428_
*475 _0429_
*476 _0430_
*477 _0431_
*478 _0432_
*479 _0433_
*480 _0434_
*481 _0435_
*482 _0436_
*483 _0437_
*484 _0438_
*485 _0439_
*486 _0440_
*487 _0441_
*488 _0442_
*489 _0443_
*490 _0444_
*491 _0445_
*492 _0446_
*493 _0447_
*494 _0448_
*495 _0449_
*496 _0450_
*497 _0451_
*498 _0452_
*499 _0453_
*500 _0454_
*501 _0455_
*502 _0456_
*503 _0457_
*504 _0458_
*505 _0459_
*506 _0460_
*507 _0461_
*508 _0462_
*509 _0463_
*510 _0464_
*511 _0465_
*512 _0466_
*513 _0467_
*514 _0468_
*515 _0469_
*516 _0470_
*517 _0471_
*518 _0472_
*519 _0473_
*520 _0474_
*521 _0475_
*522 _0476_
*523 _0477_
*524 _0478_
*525 _0479_
*526 _0480_
*527 _0481_
*528 _0482_
*529 _0483_
*530 _0484_
*531 _0485_
*532 _0486_
*533 _0487_
*534 _0488_
*535 _0489_
*536 _0490_
*537 _0491_
*538 _0492_
*539 _0493_
*540 _0494_
*541 _0495_
*542 _0496_
*543 _0497_
*544 _0498_
*545 _0499_
*546 _0500_
*547 _0501_
*548 _0502_
*549 _0503_
*550 _0504_
*551 _0505_
*552 _0506_
*553 _0507_
*554 _0508_
*555 _0509_
*556 _0510_
*557 _0511_
*558 _0512_
*559 _0513_
*560 _0514_
*561 _0515_
*562 _0516_
*563 _0517_
*564 _0518_
*565 _0519_
*566 _0520_
*567 _0521_
*568 _0522_
*569 _0523_
*570 _0524_
*571 _0525_
*572 _0526_
*573 _0527_
*574 _0528_
*575 _0529_
*576 _0530_
*577 _0531_
*578 _0532_
*579 _0533_
*580 _0534_
*581 _0535_
*582 _0536_
*583 _0537_
*584 _0538_
*585 _0539_
*586 _0540_
*587 _0541_
*588 _0542_
*589 _0543_
*590 _0544_
*591 _0545_
*592 _0546_
*593 _0547_
*594 _0548_
*595 _0549_
*596 _0550_
*597 _0551_
*598 _0552_
*599 _0553_
*600 _0554_
*601 _0555_
*602 _0556_
*603 _0557_
*604 _0558_
*605 _0559_
*606 _0560_
*607 _0561_
*608 _0562_
*609 _0563_
*610 _0564_
*611 _0565_
*612 _0566_
*613 _0567_
*614 _0568_
*615 _0569_
*616 _0570_
*617 _0571_
*618 _0572_
*619 _0573_
*620 _0574_
*621 _0575_
*622 _0576_
*623 _0577_
*624 _0578_
*625 _0579_
*626 _0580_
*627 _0581_
*628 _0582_
*629 _0583_
*630 _0584_
*631 _0585_
*632 _0586_
*633 _0587_
*634 _0588_
*635 _0589_
*636 _0590_
*637 _0591_
*638 _0592_
*639 _0593_
*640 _0594_
*641 _0595_
*642 _0596_
*643 _0597_
*644 _0598_
*645 _0599_
*646 _0600_
*647 _0601_
*648 _0602_
*649 _0603_
*650 _0604_
*651 _0605_
*652 _0606_
*653 _0607_
*654 _0608_
*655 _0609_
*656 _0610_
*657 _0611_
*658 _0612_
*659 _0613_
*660 _0614_
*661 _0615_
*662 _0616_
*663 _0617_
*664 _0618_
*665 _0619_
*666 _0620_
*667 _0621_
*668 _0622_
*669 _0623_
*670 _0624_
*671 _0625_
*672 _0626_
*673 _0627_
*674 _0628_
*675 _0629_
*676 _0630_
*677 _0631_
*678 _0632_
*679 _0633_
*680 _0634_
*681 _0635_
*682 _0636_
*683 _0637_
*684 _0638_
*685 _0639_
*686 _0640_
*687 _0641_
*688 _0642_
*689 _0643_
*690 _0644_
*691 _0645_
*692 _0646_
*693 _0647_
*694 _0648_
*695 _0649_
*696 _0650_
*697 _0651_
*698 _0652_
*699 _0653_
*700 _0654_
*701 _0655_
*702 _0656_
*703 _0657_
*704 _0658_
*705 _0659_
*706 _0660_
*707 _0661_
*708 _0662_
*709 _0663_
*710 clknet_0_clk
*711 clknet_4_0_0_clk
*712 clknet_4_10_0_clk
*713 clknet_4_11_0_clk
*714 clknet_4_12_0_clk
*715 clknet_4_13_0_clk
*716 clknet_4_14_0_clk
*717 clknet_4_15_0_clk
*718 clknet_4_1_0_clk
*719 clknet_4_2_0_clk
*720 clknet_4_3_0_clk
*721 clknet_4_4_0_clk
*722 clknet_4_5_0_clk
*723 clknet_4_6_0_clk
*724 clknet_4_7_0_clk
*725 clknet_4_8_0_clk
*726 clknet_4_9_0_clk
*727 net1
*728 net2
*729 net25
*730 net26
*731 net27
*732 net28
*733 net29
*734 net3
*735 net30
*736 net31
*737 net32
*738 net33
*739 net34
*740 net35
*741 net36
*742 net37
*743 net38
*744 net39
*745 net4
*746 net40
*747 net41
*748 net42
*749 net43
*750 net44
*751 net45
*752 net46
*753 net47
*754 net48
*755 net49
*756 net5
*757 net50
*758 net51
*759 net52
*760 net53
*761 net54
*762 net55
*763 net56
*764 net57
*765 net58
*766 net59
*767 net6
*768 net60
*769 net61
*770 net62
*771 net63
*772 net64
*773 net65
*774 net66
*775 net67
*776 net68
*777 net69
*778 net7
*779 net70
*780 net71
*781 net72
*782 net73
*783 net74
*784 net75
*785 net76
*786 net77
*787 net78
*788 net79
*789 net8
*790 net80
*791 net81
*792 net82
*793 net83
*794 net84
*795 net85
*796 net86
*797 net87
*798 net88
*799 net89
*800 net90
*801 net91
*802 net92
*803 net93
*804 net94
*805 net95
*806 vga_clock\.col_index\[0\]
*807 vga_clock\.col_index\[1\]
*808 vga_clock\.col_index_q\[0\]
*809 vga_clock\.col_index_q\[1\]
*810 vga_clock\.color\[0\]
*811 vga_clock\.color\[1\]
*812 vga_clock\.color\[2\]
*813 vga_clock\.color\[3\]
*814 vga_clock\.color\[4\]
*815 vga_clock\.color\[5\]
*816 vga_clock\.color_offset\[0\]
*817 vga_clock\.color_offset\[1\]
*818 vga_clock\.color_offset\[2\]
*819 vga_clock\.digit_0\.char\[0\]
*820 vga_clock\.digit_0\.char\[1\]
*821 vga_clock\.digit_0\.char\[2\]
*822 vga_clock\.digit_0\.char\[3\]
*823 vga_clock\.digit_0\.digit_index\[0\]
*824 vga_clock\.digit_0\.digit_index\[1\]
*825 vga_clock\.digit_0\.digit_index\[2\]
*826 vga_clock\.digit_0\.digit_index\[3\]
*827 vga_clock\.digit_0\.digit_index\[4\]
*828 vga_clock\.digit_0\.digit_index\[5\]
*829 vga_clock\.digit_0\.number\[0\]
*830 vga_clock\.digit_0\.number\[1\]
*831 vga_clock\.digit_0\.x_block\[0\]
*832 vga_clock\.digit_0\.x_block\[1\]
*833 vga_clock\.draw
*834 vga_clock\.font_0\.dout\[1\]
*835 vga_clock\.font_0\.dout\[2\]
*836 vga_clock\.font_0\.dout\[3\]
*837 vga_clock\.hrs_d\[0\]
*838 vga_clock\.hrs_d\[1\]
*839 vga_clock\.hrs_u\[0\]
*840 vga_clock\.hrs_u\[1\]
*841 vga_clock\.hrs_u\[2\]
*842 vga_clock\.hrs_u\[3\]
*843 vga_clock\.hsync
*844 vga_clock\.min_d\[0\]
*845 vga_clock\.min_d\[1\]
*846 vga_clock\.min_d\[2\]
*847 vga_clock\.min_u\[0\]
*848 vga_clock\.min_u\[1\]
*849 vga_clock\.min_u\[2\]
*850 vga_clock\.min_u\[3\]
*851 vga_clock\.pulse_hrs\.comp\[0\]
*852 vga_clock\.pulse_hrs\.comp\[1\]
*853 vga_clock\.pulse_hrs\.comp\[2\]
*854 vga_clock\.pulse_hrs\.comp\[3\]
*855 vga_clock\.pulse_hrs\.comp\[4\]
*856 vga_clock\.pulse_hrs\.count\[0\]
*857 vga_clock\.pulse_hrs\.count\[1\]
*858 vga_clock\.pulse_hrs\.count\[2\]
*859 vga_clock\.pulse_hrs\.count\[3\]
*860 vga_clock\.pulse_hrs\.count\[4\]
*861 vga_clock\.pulse_min\.comp\[0\]
*862 vga_clock\.pulse_min\.comp\[1\]
*863 vga_clock\.pulse_min\.comp\[2\]
*864 vga_clock\.pulse_min\.comp\[3\]
*865 vga_clock\.pulse_min\.comp\[4\]
*866 vga_clock\.pulse_min\.count\[0\]
*867 vga_clock\.pulse_min\.count\[1\]
*868 vga_clock\.pulse_min\.count\[2\]
*869 vga_clock\.pulse_min\.count\[3\]
*870 vga_clock\.pulse_min\.count\[4\]
*871 vga_clock\.pulse_sec\.comp\[0\]
*872 vga_clock\.pulse_sec\.comp\[1\]
*873 vga_clock\.pulse_sec\.comp\[2\]
*874 vga_clock\.pulse_sec\.comp\[3\]
*875 vga_clock\.pulse_sec\.comp\[4\]
*876 vga_clock\.pulse_sec\.count\[0\]
*877 vga_clock\.pulse_sec\.count\[1\]
*878 vga_clock\.pulse_sec\.count\[2\]
*879 vga_clock\.pulse_sec\.count\[3\]
*880 vga_clock\.pulse_sec\.count\[4\]
*881 vga_clock\.sec_counter\[0\]
*882 vga_clock\.sec_counter\[10\]
*883 vga_clock\.sec_counter\[11\]
*884 vga_clock\.sec_counter\[12\]
*885 vga_clock\.sec_counter\[13\]
*886 vga_clock\.sec_counter\[14\]
*887 vga_clock\.sec_counter\[15\]
*888 vga_clock\.sec_counter\[16\]
*889 vga_clock\.sec_counter\[17\]
*890 vga_clock\.sec_counter\[18\]
*891 vga_clock\.sec_counter\[19\]
*892 vga_clock\.sec_counter\[1\]
*893 vga_clock\.sec_counter\[20\]
*894 vga_clock\.sec_counter\[21\]
*895 vga_clock\.sec_counter\[22\]
*896 vga_clock\.sec_counter\[23\]
*897 vga_clock\.sec_counter\[24\]
*898 vga_clock\.sec_counter\[25\]
*899 vga_clock\.sec_counter\[2\]
*900 vga_clock\.sec_counter\[3\]
*901 vga_clock\.sec_counter\[4\]
*902 vga_clock\.sec_counter\[5\]
*903 vga_clock\.sec_counter\[6\]
*904 vga_clock\.sec_counter\[7\]
*905 vga_clock\.sec_counter\[8\]
*906 vga_clock\.sec_counter\[9\]
*907 vga_clock\.sec_d\[0\]
*908 vga_clock\.sec_d\[1\]
*909 vga_clock\.sec_d\[2\]
*910 vga_clock\.sec_u\[0\]
*911 vga_clock\.sec_u\[1\]
*912 vga_clock\.sec_u\[2\]
*913 vga_clock\.sec_u\[3\]
*914 vga_clock\.vga_0\.hc\[0\]
*915 vga_clock\.vga_0\.hc\[1\]
*916 vga_clock\.vga_0\.hc\[2\]
*917 vga_clock\.vga_0\.hc\[3\]
*918 vga_clock\.vga_0\.hc\[4\]
*919 vga_clock\.vga_0\.hc\[5\]
*920 vga_clock\.vga_0\.hc\[6\]
*921 vga_clock\.vga_0\.hc\[7\]
*922 vga_clock\.vga_0\.hc\[8\]
*923 vga_clock\.vga_0\.hc\[9\]
*924 vga_clock\.vga_0\.vc\[0\]
*925 vga_clock\.vga_0\.vc\[1\]
*926 vga_clock\.vga_0\.vc\[2\]
*927 vga_clock\.vga_0\.vc\[3\]
*928 vga_clock\.vga_0\.vc\[4\]
*929 vga_clock\.vga_0\.vc\[5\]
*930 vga_clock\.vga_0\.vc\[6\]
*931 vga_clock\.vga_0\.vc\[7\]
*932 vga_clock\.vga_0\.vc\[8\]
*933 vga_clock\.vga_0\.vc\[9\]
*934 vga_clock\.vga_0\.vsync
*935 vga_clock\.vga_0\.x_px\[0\]
*936 vga_clock\.vga_0\.x_px\[1\]
*937 vga_clock\.vga_0\.x_px\[2\]
*938 vga_clock\.vga_0\.x_px\[3\]
*939 vga_clock\.vga_0\.x_px\[6\]
*940 vga_clock\.vga_0\.x_px\[7\]
*941 vga_clock\.vga_0\.x_px\[8\]
*942 vga_clock\.vga_0\.x_px\[9\]
*943 vga_clock\.vga_0\.y_px\[0\]
*944 vga_clock\.vga_0\.y_px\[1\]
*945 vga_clock\.vga_0\.y_px\[2\]
*946 vga_clock\.vga_0\.y_px\[3\]
*947 vga_clock\.vga_0\.y_px\[4\]
*948 vga_clock\.vga_0\.y_px\[5\]
*949 vga_clock\.vga_0\.y_px\[6\]
*950 vga_clock\.vga_0\.y_px\[7\]
*951 vga_clock\.vga_0\.y_px\[8\]
*952 vga_clock\.vga_0\.y_px\[9\]
*953 vga_clock\.x_block_q\[5\]
*954 vga_clock\.y_block\[0\]
*955 vga_clock\.y_block\[1\]
*956 vga_clock\.y_block\[2\]
*957 vga_clock\.y_block\[3\]
*958 vga_clock\.y_block\[4\]
*959 vga_clock\.y_block\[5\]
*960 vga_clock\.y_block_q\[0\]
*961 vga_clock\.y_block_q\[1\]
*962 vga_clock\.y_block_q\[2\]
*963 vga_clock\.y_block_q\[3\]
*964 vga_clock\.y_block_q\[4\]
*965 vga_clock\.y_block_q\[5\]
*966 FILLER_0_0_109
*967 FILLER_0_0_113
*968 FILLER_0_0_125
*969 FILLER_0_0_137
*970 FILLER_0_0_141
*971 FILLER_0_0_15
*972 FILLER_0_0_153
*973 FILLER_0_0_165
*974 FILLER_0_0_169
*975 FILLER_0_0_181
*976 FILLER_0_0_189
*977 FILLER_0_0_214
*978 FILLER_0_0_222
*979 FILLER_0_0_225
*980 FILLER_0_0_237
*981 FILLER_0_0_244
*982 FILLER_0_0_253
*983 FILLER_0_0_265
*984 FILLER_0_0_27
*985 FILLER_0_0_273
*986 FILLER_0_0_281
*987 FILLER_0_0_29
*988 FILLER_0_0_291
*989 FILLER_0_0_3
*990 FILLER_0_0_303
*991 FILLER_0_0_307
*992 FILLER_0_0_309
*993 FILLER_0_0_321
*994 FILLER_0_0_333
*995 FILLER_0_0_337
*996 FILLER_0_0_349
*997 FILLER_0_0_41
*998 FILLER_0_0_53
*999 FILLER_0_0_57
*1000 FILLER_0_0_69
*1001 FILLER_0_0_81
*1002 FILLER_0_0_85
*1003 FILLER_0_0_97
*1004 FILLER_0_10_107
*1005 FILLER_0_10_125
*1006 FILLER_0_10_134
*1007 FILLER_0_10_141
*1008 FILLER_0_10_15
*1009 FILLER_0_10_158
*1010 FILLER_0_10_191
*1011 FILLER_0_10_195
*1012 FILLER_0_10_197
*1013 FILLER_0_10_209
*1014 FILLER_0_10_221
*1015 FILLER_0_10_23
*1016 FILLER_0_10_233
*1017 FILLER_0_10_239
*1018 FILLER_0_10_245
*1019 FILLER_0_10_259
*1020 FILLER_0_10_281
*1021 FILLER_0_10_3
*1022 FILLER_0_10_307
*1023 FILLER_0_10_332
*1024 FILLER_0_10_344
*1025 FILLER_0_10_350
*1026 FILLER_0_10_64
*1027 FILLER_0_11_107
*1028 FILLER_0_11_111
*1029 FILLER_0_11_113
*1030 FILLER_0_11_146
*1031 FILLER_0_11_158
*1032 FILLER_0_11_162
*1033 FILLER_0_11_186
*1034 FILLER_0_11_198
*1035 FILLER_0_11_210
*1036 FILLER_0_11_222
*1037 FILLER_0_11_225
*1038 FILLER_0_11_229
*1039 FILLER_0_11_265
*1040 FILLER_0_11_278
*1041 FILLER_0_11_289
*1042 FILLER_0_11_3
*1043 FILLER_0_11_301
*1044 FILLER_0_11_328
*1045 FILLER_0_11_337
*1046 FILLER_0_11_349
*1047 FILLER_0_11_37
*1048 FILLER_0_11_57
*1049 FILLER_0_11_69
*1050 FILLER_0_11_94
*1051 FILLER_0_12_109
*1052 FILLER_0_12_121
*1053 FILLER_0_12_148
*1054 FILLER_0_12_160
*1055 FILLER_0_12_164
*1056 FILLER_0_12_188
*1057 FILLER_0_12_197
*1058 FILLER_0_12_209
*1059 FILLER_0_12_213
*1060 FILLER_0_12_230
*1061 FILLER_0_12_242
*1062 FILLER_0_12_250
*1063 FILLER_0_12_253
*1064 FILLER_0_12_265
*1065 FILLER_0_12_27
*1066 FILLER_0_12_277
*1067 FILLER_0_12_283
*1068 FILLER_0_12_3
*1069 FILLER_0_12_320
*1070 FILLER_0_12_332
*1071 FILLER_0_12_344
*1072 FILLER_0_12_350
*1073 FILLER_0_12_53
*1074 FILLER_0_12_65
*1075 FILLER_0_12_77
*1076 FILLER_0_12_85
*1077 FILLER_0_13_101
*1078 FILLER_0_13_109
*1079 FILLER_0_13_130
*1080 FILLER_0_13_149
*1081 FILLER_0_13_162
*1082 FILLER_0_13_169
*1083 FILLER_0_13_193
*1084 FILLER_0_13_205
*1085 FILLER_0_13_21
*1086 FILLER_0_13_241
*1087 FILLER_0_13_253
*1088 FILLER_0_13_261
*1089 FILLER_0_13_265
*1090 FILLER_0_13_277
*1091 FILLER_0_13_281
*1092 FILLER_0_13_3
*1093 FILLER_0_13_305
*1094 FILLER_0_13_31
*1095 FILLER_0_13_317
*1096 FILLER_0_13_329
*1097 FILLER_0_13_335
*1098 FILLER_0_13_337
*1099 FILLER_0_13_349
*1100 FILLER_0_13_36
*1101 FILLER_0_13_48
*1102 FILLER_0_13_52
*1103 FILLER_0_13_57
*1104 FILLER_0_13_69
*1105 FILLER_0_14_100
*1106 FILLER_0_14_11
*1107 FILLER_0_14_119
*1108 FILLER_0_14_131
*1109 FILLER_0_14_139
*1110 FILLER_0_14_141
*1111 FILLER_0_14_153
*1112 FILLER_0_14_165
*1113 FILLER_0_14_17
*1114 FILLER_0_14_194
*1115 FILLER_0_14_197
*1116 FILLER_0_14_22
*1117 FILLER_0_14_239
*1118 FILLER_0_14_251
*1119 FILLER_0_14_257
*1120 FILLER_0_14_275
*1121 FILLER_0_14_287
*1122 FILLER_0_14_29
*1123 FILLER_0_14_299
*1124 FILLER_0_14_3
*1125 FILLER_0_14_307
*1126 FILLER_0_14_309
*1127 FILLER_0_14_317
*1128 FILLER_0_14_324
*1129 FILLER_0_14_336
*1130 FILLER_0_14_348
*1131 FILLER_0_14_41
*1132 FILLER_0_14_69
*1133 FILLER_0_14_85
*1134 FILLER_0_15_108
*1135 FILLER_0_15_113
*1136 FILLER_0_15_126
*1137 FILLER_0_15_145
*1138 FILLER_0_15_149
*1139 FILLER_0_15_153
*1140 FILLER_0_15_169
*1141 FILLER_0_15_182
*1142 FILLER_0_15_194
*1143 FILLER_0_15_206
*1144 FILLER_0_15_223
*1145 FILLER_0_15_238
*1146 FILLER_0_15_244
*1147 FILLER_0_15_25
*1148 FILLER_0_15_278
*1149 FILLER_0_15_287
*1150 FILLER_0_15_295
*1151 FILLER_0_15_3
*1152 FILLER_0_15_317
*1153 FILLER_0_15_337
*1154 FILLER_0_15_349
*1155 FILLER_0_15_37
*1156 FILLER_0_15_82
*1157 FILLER_0_15_90
*1158 FILLER_0_16_11
*1159 FILLER_0_16_111
*1160 FILLER_0_16_139
*1161 FILLER_0_16_157
*1162 FILLER_0_16_179
*1163 FILLER_0_16_191
*1164 FILLER_0_16_195
*1165 FILLER_0_16_197
*1166 FILLER_0_16_209
*1167 FILLER_0_16_219
*1168 FILLER_0_16_224
*1169 FILLER_0_16_236
*1170 FILLER_0_16_242
*1171 FILLER_0_16_250
*1172 FILLER_0_16_261
*1173 FILLER_0_16_286
*1174 FILLER_0_16_3
*1175 FILLER_0_16_327
*1176 FILLER_0_16_346
*1177 FILLER_0_16_350
*1178 FILLER_0_16_63
*1179 FILLER_0_16_85
*1180 FILLER_0_16_89
*1181 FILLER_0_16_99
*1182 FILLER_0_17_100
*1183 FILLER_0_17_113
*1184 FILLER_0_17_117
*1185 FILLER_0_17_137
*1186 FILLER_0_17_167
*1187 FILLER_0_17_169
*1188 FILLER_0_17_184
*1189 FILLER_0_17_196
*1190 FILLER_0_17_204
*1191 FILLER_0_17_212
*1192 FILLER_0_17_232
*1193 FILLER_0_17_244
*1194 FILLER_0_17_252
*1195 FILLER_0_17_26
*1196 FILLER_0_17_262
*1197 FILLER_0_17_277
*1198 FILLER_0_17_281
*1199 FILLER_0_17_293
*1200 FILLER_0_17_297
*1201 FILLER_0_17_3
*1202 FILLER_0_17_305
*1203 FILLER_0_17_323
*1204 FILLER_0_17_334
*1205 FILLER_0_17_350
*1206 FILLER_0_17_37
*1207 FILLER_0_17_49
*1208 FILLER_0_17_54
*1209 FILLER_0_17_57
*1210 FILLER_0_17_70
*1211 FILLER_0_17_82
*1212 FILLER_0_17_9
*1213 FILLER_0_18_102
*1214 FILLER_0_18_119
*1215 FILLER_0_18_131
*1216 FILLER_0_18_139
*1217 FILLER_0_18_141
*1218 FILLER_0_18_153
*1219 FILLER_0_18_176
*1220 FILLER_0_18_184
*1221 FILLER_0_18_197
*1222 FILLER_0_18_217
*1223 FILLER_0_18_241
*1224 FILLER_0_18_251
*1225 FILLER_0_18_256
*1226 FILLER_0_18_267
*1227 FILLER_0_18_282
*1228 FILLER_0_18_29
*1229 FILLER_0_18_294
*1230 FILLER_0_18_3
*1231 FILLER_0_18_300
*1232 FILLER_0_18_346
*1233 FILLER_0_18_35
*1234 FILLER_0_18_350
*1235 FILLER_0_18_85
*1236 FILLER_0_18_97
*1237 FILLER_0_19_129
*1238 FILLER_0_19_141
*1239 FILLER_0_19_153
*1240 FILLER_0_19_161
*1241 FILLER_0_19_166
*1242 FILLER_0_19_176
*1243 FILLER_0_19_191
*1244 FILLER_0_19_205
*1245 FILLER_0_19_212
*1246 FILLER_0_19_225
*1247 FILLER_0_19_25
*1248 FILLER_0_19_262
*1249 FILLER_0_19_284
*1250 FILLER_0_19_296
*1251 FILLER_0_19_3
*1252 FILLER_0_19_334
*1253 FILLER_0_19_345
*1254 FILLER_0_19_37
*1255 FILLER_0_19_57
*1256 FILLER_0_19_75
*1257 FILLER_0_19_87
*1258 FILLER_0_1_105
*1259 FILLER_0_1_111
*1260 FILLER_0_1_113
*1261 FILLER_0_1_125
*1262 FILLER_0_1_137
*1263 FILLER_0_1_149
*1264 FILLER_0_1_15
*1265 FILLER_0_1_161
*1266 FILLER_0_1_167
*1267 FILLER_0_1_169
*1268 FILLER_0_1_181
*1269 FILLER_0_1_222
*1270 FILLER_0_1_225
*1271 FILLER_0_1_242
*1272 FILLER_0_1_255
*1273 FILLER_0_1_267
*1274 FILLER_0_1_27
*1275 FILLER_0_1_279
*1276 FILLER_0_1_3
*1277 FILLER_0_1_300
*1278 FILLER_0_1_312
*1279 FILLER_0_1_324
*1280 FILLER_0_1_337
*1281 FILLER_0_1_349
*1282 FILLER_0_1_39
*1283 FILLER_0_1_51
*1284 FILLER_0_1_55
*1285 FILLER_0_1_57
*1286 FILLER_0_1_69
*1287 FILLER_0_1_81
*1288 FILLER_0_1_93
*1289 FILLER_0_20_11
*1290 FILLER_0_20_130
*1291 FILLER_0_20_138
*1292 FILLER_0_20_162
*1293 FILLER_0_20_168
*1294 FILLER_0_20_197
*1295 FILLER_0_20_209
*1296 FILLER_0_20_221
*1297 FILLER_0_20_233
*1298 FILLER_0_20_239
*1299 FILLER_0_20_253
*1300 FILLER_0_20_286
*1301 FILLER_0_20_29
*1302 FILLER_0_20_298
*1303 FILLER_0_20_3
*1304 FILLER_0_20_309
*1305 FILLER_0_20_334
*1306 FILLER_0_20_346
*1307 FILLER_0_20_350
*1308 FILLER_0_20_41
*1309 FILLER_0_20_49
*1310 FILLER_0_20_71
*1311 FILLER_0_20_85
*1312 FILLER_0_21_118
*1313 FILLER_0_21_130
*1314 FILLER_0_21_167
*1315 FILLER_0_21_179
*1316 FILLER_0_21_187
*1317 FILLER_0_21_192
*1318 FILLER_0_21_201
*1319 FILLER_0_21_205
*1320 FILLER_0_21_221
*1321 FILLER_0_21_233
*1322 FILLER_0_21_245
*1323 FILLER_0_21_253
*1324 FILLER_0_21_257
*1325 FILLER_0_21_28
*1326 FILLER_0_21_281
*1327 FILLER_0_21_293
*1328 FILLER_0_21_3
*1329 FILLER_0_21_305
*1330 FILLER_0_21_332
*1331 FILLER_0_21_344
*1332 FILLER_0_21_350
*1333 FILLER_0_21_38
*1334 FILLER_0_21_50
*1335 FILLER_0_21_57
*1336 FILLER_0_21_69
*1337 FILLER_0_21_99
*1338 FILLER_0_22_109
*1339 FILLER_0_22_11
*1340 FILLER_0_22_113
*1341 FILLER_0_22_118
*1342 FILLER_0_22_130
*1343 FILLER_0_22_138
*1344 FILLER_0_22_164
*1345 FILLER_0_22_174
*1346 FILLER_0_22_20
*1347 FILLER_0_22_237
*1348 FILLER_0_22_249
*1349 FILLER_0_22_253
*1350 FILLER_0_22_261
*1351 FILLER_0_22_280
*1352 FILLER_0_22_292
*1353 FILLER_0_22_3
*1354 FILLER_0_22_304
*1355 FILLER_0_22_314
*1356 FILLER_0_22_326
*1357 FILLER_0_22_346
*1358 FILLER_0_22_350
*1359 FILLER_0_22_42
*1360 FILLER_0_22_46
*1361 FILLER_0_22_75
*1362 FILLER_0_22_83
*1363 FILLER_0_23_11
*1364 FILLER_0_23_111
*1365 FILLER_0_23_113
*1366 FILLER_0_23_142
*1367 FILLER_0_23_154
*1368 FILLER_0_23_166
*1369 FILLER_0_23_174
*1370 FILLER_0_23_186
*1371 FILLER_0_23_194
*1372 FILLER_0_23_222
*1373 FILLER_0_23_225
*1374 FILLER_0_23_242
*1375 FILLER_0_23_263
*1376 FILLER_0_23_275
*1377 FILLER_0_23_279
*1378 FILLER_0_23_281
*1379 FILLER_0_23_29
*1380 FILLER_0_23_292
*1381 FILLER_0_23_3
*1382 FILLER_0_23_304
*1383 FILLER_0_23_308
*1384 FILLER_0_23_345
*1385 FILLER_0_23_47
*1386 FILLER_0_23_55
*1387 FILLER_0_23_68
*1388 FILLER_0_23_76
*1389 FILLER_0_23_93
*1390 FILLER_0_24_103
*1391 FILLER_0_24_11
*1392 FILLER_0_24_123
*1393 FILLER_0_24_141
*1394 FILLER_0_24_149
*1395 FILLER_0_24_166
*1396 FILLER_0_24_176
*1397 FILLER_0_24_188
*1398 FILLER_0_24_197
*1399 FILLER_0_24_209
*1400 FILLER_0_24_214
*1401 FILLER_0_24_218
*1402 FILLER_0_24_238
*1403 FILLER_0_24_246
*1404 FILLER_0_24_269
*1405 FILLER_0_24_275
*1406 FILLER_0_24_298
*1407 FILLER_0_24_3
*1408 FILLER_0_24_328
*1409 FILLER_0_24_347
*1410 FILLER_0_24_37
*1411 FILLER_0_24_49
*1412 FILLER_0_24_61
*1413 FILLER_0_24_73
*1414 FILLER_0_24_81
*1415 FILLER_0_24_85
*1416 FILLER_0_24_91
*1417 FILLER_0_25_102
*1418 FILLER_0_25_110
*1419 FILLER_0_25_121
*1420 FILLER_0_25_126
*1421 FILLER_0_25_132
*1422 FILLER_0_25_144
*1423 FILLER_0_25_169
*1424 FILLER_0_25_177
*1425 FILLER_0_25_198
*1426 FILLER_0_25_210
*1427 FILLER_0_25_223
*1428 FILLER_0_25_225
*1429 FILLER_0_25_250
*1430 FILLER_0_25_259
*1431 FILLER_0_25_272
*1432 FILLER_0_25_276
*1433 FILLER_0_25_3
*1434 FILLER_0_25_310
*1435 FILLER_0_25_314
*1436 FILLER_0_25_322
*1437 FILLER_0_25_331
*1438 FILLER_0_25_335
*1439 FILLER_0_25_337
*1440 FILLER_0_25_349
*1441 FILLER_0_25_55
*1442 FILLER_0_25_60
*1443 FILLER_0_25_72
*1444 FILLER_0_25_84
*1445 FILLER_0_25_90
*1446 FILLER_0_26_104
*1447 FILLER_0_26_116
*1448 FILLER_0_26_139
*1449 FILLER_0_26_141
*1450 FILLER_0_26_164
*1451 FILLER_0_26_176
*1452 FILLER_0_26_197
*1453 FILLER_0_26_249
*1454 FILLER_0_26_256
*1455 FILLER_0_26_26
*1456 FILLER_0_26_268
*1457 FILLER_0_26_275
*1458 FILLER_0_26_279
*1459 FILLER_0_26_296
*1460 FILLER_0_26_3
*1461 FILLER_0_26_309
*1462 FILLER_0_26_318
*1463 FILLER_0_26_324
*1464 FILLER_0_26_336
*1465 FILLER_0_26_348
*1466 FILLER_0_26_35
*1467 FILLER_0_26_47
*1468 FILLER_0_26_83
*1469 FILLER_0_26_9
*1470 FILLER_0_27_110
*1471 FILLER_0_27_113
*1472 FILLER_0_27_117
*1473 FILLER_0_27_133
*1474 FILLER_0_27_139
*1475 FILLER_0_27_143
*1476 FILLER_0_27_147
*1477 FILLER_0_27_15
*1478 FILLER_0_27_156
*1479 FILLER_0_27_169
*1480 FILLER_0_27_19
*1481 FILLER_0_27_192
*1482 FILLER_0_27_197
*1483 FILLER_0_27_220
*1484 FILLER_0_27_230
*1485 FILLER_0_27_256
*1486 FILLER_0_27_273
*1487 FILLER_0_27_279
*1488 FILLER_0_27_281
*1489 FILLER_0_27_287
*1490 FILLER_0_27_299
*1491 FILLER_0_27_3
*1492 FILLER_0_27_304
*1493 FILLER_0_27_31
*1494 FILLER_0_27_319
*1495 FILLER_0_27_337
*1496 FILLER_0_27_349
*1497 FILLER_0_27_43
*1498 FILLER_0_27_51
*1499 FILLER_0_27_57
*1500 FILLER_0_28_100
*1501 FILLER_0_28_112
*1502 FILLER_0_28_116
*1503 FILLER_0_28_127
*1504 FILLER_0_28_138
*1505 FILLER_0_28_157
*1506 FILLER_0_28_169
*1507 FILLER_0_28_177
*1508 FILLER_0_28_191
*1509 FILLER_0_28_195
*1510 FILLER_0_28_197
*1511 FILLER_0_28_209
*1512 FILLER_0_28_215
*1513 FILLER_0_28_223
*1514 FILLER_0_28_243
*1515 FILLER_0_28_247
*1516 FILLER_0_28_26
*1517 FILLER_0_28_269
*1518 FILLER_0_28_281
*1519 FILLER_0_28_290
*1520 FILLER_0_28_3
*1521 FILLER_0_28_307
*1522 FILLER_0_28_346
*1523 FILLER_0_28_350
*1524 FILLER_0_28_39
*1525 FILLER_0_28_47
*1526 FILLER_0_28_64
*1527 FILLER_0_28_83
*1528 FILLER_0_28_9
*1529 FILLER_0_28_90
*1530 FILLER_0_28_94
*1531 FILLER_0_29_103
*1532 FILLER_0_29_111
*1533 FILLER_0_29_113
*1534 FILLER_0_29_128
*1535 FILLER_0_29_132
*1536 FILLER_0_29_151
*1537 FILLER_0_29_163
*1538 FILLER_0_29_167
*1539 FILLER_0_29_169
*1540 FILLER_0_29_196
*1541 FILLER_0_29_208
*1542 FILLER_0_29_220
*1543 FILLER_0_29_225
*1544 FILLER_0_29_237
*1545 FILLER_0_29_259
*1546 FILLER_0_29_272
*1547 FILLER_0_29_281
*1548 FILLER_0_29_3
*1549 FILLER_0_29_300
*1550 FILLER_0_29_308
*1551 FILLER_0_29_345
*1552 FILLER_0_29_54
*1553 FILLER_0_29_57
*1554 FILLER_0_29_79
*1555 FILLER_0_29_91
*1556 FILLER_0_2_109
*1557 FILLER_0_2_121
*1558 FILLER_0_2_133
*1559 FILLER_0_2_139
*1560 FILLER_0_2_141
*1561 FILLER_0_2_15
*1562 FILLER_0_2_153
*1563 FILLER_0_2_165
*1564 FILLER_0_2_177
*1565 FILLER_0_2_192
*1566 FILLER_0_2_197
*1567 FILLER_0_2_219
*1568 FILLER_0_2_251
*1569 FILLER_0_2_263
*1570 FILLER_0_2_27
*1571 FILLER_0_2_29
*1572 FILLER_0_2_3
*1573 FILLER_0_2_307
*1574 FILLER_0_2_309
*1575 FILLER_0_2_321
*1576 FILLER_0_2_333
*1577 FILLER_0_2_345
*1578 FILLER_0_2_41
*1579 FILLER_0_2_53
*1580 FILLER_0_2_65
*1581 FILLER_0_2_77
*1582 FILLER_0_2_83
*1583 FILLER_0_2_85
*1584 FILLER_0_2_97
*1585 FILLER_0_30_102
*1586 FILLER_0_30_108
*1587 FILLER_0_30_130
*1588 FILLER_0_30_141
*1589 FILLER_0_30_159
*1590 FILLER_0_30_171
*1591 FILLER_0_30_183
*1592 FILLER_0_30_195
*1593 FILLER_0_30_197
*1594 FILLER_0_30_221
*1595 FILLER_0_30_233
*1596 FILLER_0_30_241
*1597 FILLER_0_30_246
*1598 FILLER_0_30_251
*1599 FILLER_0_30_267
*1600 FILLER_0_30_279
*1601 FILLER_0_30_3
*1602 FILLER_0_30_306
*1603 FILLER_0_30_309
*1604 FILLER_0_30_316
*1605 FILLER_0_30_328
*1606 FILLER_0_30_346
*1607 FILLER_0_30_350
*1608 FILLER_0_30_45
*1609 FILLER_0_30_57
*1610 FILLER_0_30_82
*1611 FILLER_0_30_88
*1612 FILLER_0_30_96
*1613 FILLER_0_31_105
*1614 FILLER_0_31_111
*1615 FILLER_0_31_113
*1616 FILLER_0_31_122
*1617 FILLER_0_31_148
*1618 FILLER_0_31_169
*1619 FILLER_0_31_175
*1620 FILLER_0_31_192
*1621 FILLER_0_31_267
*1622 FILLER_0_31_279
*1623 FILLER_0_31_281
*1624 FILLER_0_31_293
*1625 FILLER_0_31_3
*1626 FILLER_0_31_30
*1627 FILLER_0_31_312
*1628 FILLER_0_31_324
*1629 FILLER_0_31_332
*1630 FILLER_0_31_337
*1631 FILLER_0_31_346
*1632 FILLER_0_31_350
*1633 FILLER_0_31_40
*1634 FILLER_0_31_52
*1635 FILLER_0_31_92
*1636 FILLER_0_32_107
*1637 FILLER_0_32_113
*1638 FILLER_0_32_165
*1639 FILLER_0_32_177
*1640 FILLER_0_32_194
*1641 FILLER_0_32_203
*1642 FILLER_0_32_209
*1643 FILLER_0_32_229
*1644 FILLER_0_32_237
*1645 FILLER_0_32_250
*1646 FILLER_0_32_269
*1647 FILLER_0_32_281
*1648 FILLER_0_32_286
*1649 FILLER_0_32_294
*1650 FILLER_0_32_3
*1651 FILLER_0_32_304
*1652 FILLER_0_32_312