*SPEF "ieee 1481-1999"
*DESIGN "tt_um_vga_clock"
*DATE "11:11:11 Fri 11 11, 1111"
*VENDOR "OpenRCX"
*PROGRAM "Parallel Extraction"
*VERSION "1.0"
*DESIGN_FLOW "NAME_SCOPE LOCAL" "PIN_CAP NONE"
*DIVIDER /
*DELIMITER :
*BUS_DELIMITER []
*T_UNIT 1 NS
*C_UNIT 1 PF
*R_UNIT 1 OHM
*L_UNIT 1 HENRY

*NAME_MAP
*3 clk
*4 ena
*5 rst_n
*6 ui_in[0]
*7 ui_in[1]
*8 ui_in[2]
*9 ui_in[3]
*10 ui_in[4]
*11 ui_in[5]
*12 ui_in[6]
*13 ui_in[7]
*14 uio_in[0]
*15 uio_in[1]
*16 uio_in[2]
*17 uio_in[3]
*18 uio_in[4]
*19 uio_in[5]
*20 uio_in[6]
*21 uio_in[7]
*22 net8
*23 net9
*24 net10
*25 net11
*26 net12
*27 net13
*28 net14
*29 net15
*30 net16
*31 net17
*32 net18
*33 net19
*34 net20
*35 net21
*36 net22
*37 net23
*38 uo_out[0]
*39 uo_out[1]
*40 uo_out[2]
*41 uo_out[3]
*42 uo_out[4]
*43 uo_out[5]
*44 uo_out[6]
*45 uo_out[7]
*46 _0000_
*47 _0001_
*48 _0002_
*49 _0003_
*50 _0004_
*51 _0005_
*52 _0006_
*53 _0007_
*54 _0008_
*55 _0009_
*56 _0010_
*57 _0011_
*58 _0012_
*59 _0013_
*60 _0014_
*61 _0015_
*62 _0016_
*63 _0017_
*64 _0018_
*65 _0019_
*66 _0020_
*67 _0021_
*68 _0022_
*69 _0023_
*70 _0024_
*71 _0025_
*72 _0026_
*73 _0027_
*74 _0028_
*75 _0029_
*76 _0030_
*77 _0031_
*78 _0032_
*79 _0033_
*80 _0034_
*81 _0035_
*82 _0036_
*83 _0037_
*84 _0038_
*85 _0039_
*86 _0040_
*87 _0041_
*88 _0042_
*89 _0043_
*90 _0044_
*91 _0045_
*92 _0046_
*93 _0047_
*94 _0048_
*95 _0049_
*96 _0050_
*97 _0051_
*98 _0052_
*99 _0053_
*100 _0054_
*101 _0055_
*102 _0056_
*103 _0057_
*104 _0058_
*105 _0059_
*106 _0060_
*107 _0061_
*108 _0062_
*109 _0063_
*110 _0064_
*111 _0065_
*112 _0066_
*113 _0067_
*114 _0068_
*115 _0069_
*116 _0070_
*117 _0071_
*118 _0072_
*119 _0073_
*120 _0074_
*121 _0075_
*122 _0076_
*123 _0077_
*124 _0078_
*125 _0079_
*126 _0080_
*127 _0081_
*128 _0082_
*129 _0083_
*130 _0084_
*131 _0085_
*132 _0086_
*133 _0087_
*134 _0088_
*135 _0089_
*136 _0090_
*137 _0091_
*138 _0092_
*139 _0093_
*140 _0094_
*141 _0095_
*142 _0096_
*143 _0097_
*144 _0098_
*145 _0099_
*146 _0100_
*147 _0101_
*148 _0102_
*149 _0103_
*150 _0104_
*151 _0105_
*152 _0106_
*153 _0107_
*154 _0108_
*155 _0109_
*156 _0110_
*157 _0111_
*158 _0112_
*159 _0113_
*160 _0114_
*161 _0115_
*162 _0116_
*163 _0117_
*164 _0118_
*165 _0119_
*166 _0120_
*167 _0121_
*168 _0122_
*169 _0123_
*170 _0124_
*171 _0125_
*172 _0126_
*173 _0127_
*174 _0128_
*175 _0129_
*176 _0130_
*177 _0131_
*178 _0132_
*179 _0133_
*180 _0134_
*181 _0135_
*182 _0136_
*183 _0137_
*184 _0138_
*185 _0139_
*186 _0140_
*187 _0141_
*188 _0142_
*189 _0143_
*190 _0144_
*191 _0145_
*192 _0146_
*193 _0147_
*194 _0148_
*195 _0149_
*196 _0150_
*197 _0151_
*198 _0152_
*199 _0153_
*200 _0154_
*201 _0155_
*202 _0156_
*203 _0157_
*204 _0158_
*205 _0159_
*206 _0160_
*207 _0161_
*208 _0162_
*209 _0163_
*210 _0164_
*211 _0165_
*212 _0166_
*213 _0167_
*214 _0168_
*215 _0169_
*216 _0170_
*217 _0171_
*218 _0172_
*219 _0173_
*220 _0174_
*221 _0175_
*222 _0176_
*223 _0177_
*224 _0178_
*225 _0179_
*226 _0180_
*227 _0181_
*228 _0182_
*229 _0183_
*230 _0184_
*231 _0185_
*232 _0186_
*233 _0187_
*234 _0188_
*235 _0189_
*236 _0190_
*237 _0191_
*238 _0192_
*239 _0193_
*240 _0194_
*241 _0195_
*242 _0196_
*243 _0197_
*244 _0198_
*245 _0199_
*246 _0200_
*247 _0201_
*248 _0202_
*249 _0203_
*250 _0204_
*251 _0205_
*252 _0206_
*253 _0207_
*254 _0208_
*255 _0209_
*256 _0210_
*257 _0211_
*258 _0212_
*259 _0213_
*260 _0214_
*261 _0215_
*262 _0216_
*263 _0217_
*264 _0218_
*265 _0219_
*266 _0220_
*267 _0221_
*268 _0222_
*269 _0223_
*270 _0224_
*271 _0225_
*272 _0226_
*273 _0227_
*274 _0228_
*275 _0229_
*276 _0230_
*277 _0231_
*278 _0232_
*279 _0233_
*280 _0234_
*281 _0235_
*282 _0236_
*283 _0237_
*284 _0238_
*285 _0239_
*286 _0240_
*287 _0241_
*288 _0242_
*289 _0243_
*290 _0244_
*291 _0245_
*292 _0246_
*293 _0247_
*294 _0248_
*295 _0249_
*296 _0250_
*297 _0251_
*298 _0252_
*299 _0253_
*300 _0254_
*301 _0255_
*302 _0256_
*303 _0257_
*304 _0258_
*305 _0259_
*306 _0260_
*307 _0261_
*308 _0262_
*309 _0263_
*310 _0264_
*311 _0265_
*312 _0266_
*313 _0267_
*314 _0268_
*315 _0269_
*316 _0270_
*317 _0271_
*318 _0272_
*319 _0273_
*320 _0274_
*321 _0275_
*322 _0276_
*323 _0277_
*324 _0278_
*325 _0279_
*326 _0280_
*327 _0281_
*328 _0282_
*329 _0283_
*330 _0284_
*331 _0285_
*332 _0286_
*333 _0287_
*334 _0288_
*335 _0289_
*336 _0290_
*337 _0291_
*338 _0292_
*339 _0293_
*340 _0294_
*341 _0295_
*342 _0296_
*343 _0297_
*344 _0298_
*345 _0299_
*346 _0300_
*347 _0301_
*348 _0302_
*349 _0303_
*350 _0304_
*351 _0305_
*352 _0306_
*353 _0307_
*354 _0308_
*355 _0309_
*356 _0310_
*357 _0311_
*358 _0312_
*359 _0313_
*360 _0314_
*361 _0315_
*362 _0316_
*363 _0317_
*364 _0318_
*365 _0319_
*366 _0320_
*367 _0321_
*368 _0322_
*369 _0323_
*370 _0324_
*371 _0325_
*372 _0326_
*373 _0327_
*374 _0328_
*375 _0329_
*376 _0330_
*377 _0331_
*378 _0332_
*379 _0333_
*380 _0334_
*381 _0335_
*382 _0336_
*383 _0337_
*384 _0338_
*385 _0339_
*386 _0340_
*387 _0341_
*388 _0342_
*389 _0343_
*390 _0344_
*391 _0345_
*392 _0346_
*393 _0347_
*394 _0348_
*395 _0349_
*396 _0350_
*397 _0351_
*398 _0352_
*399 _0353_
*400 _0354_
*401 _0355_
*402 _0356_
*403 _0357_
*404 _0358_
*405 _0359_
*406 _0360_
*407 _0361_
*408 _0362_
*409 _0363_
*410 _0364_
*411 _0365_
*412 _0366_
*413 _0367_
*414 _0368_
*415 _0369_
*416 _0370_
*417 _0371_
*418 _0372_
*419 _0373_
*420 _0374_
*421 _0375_
*422 _0376_
*423 _0377_
*424 _0378_
*425 _0379_
*426 _0380_
*427 _0381_
*428 _0382_
*429 _0383_
*430 _0384_
*431 _0385_
*432 _0386_
*433 _0387_
*434 _0388_
*435 _0389_
*436 _0390_
*437 _0391_
*438 _0392_
*439 _0393_
*440 _0394_
*441 _0395_
*442 _0396_
*443 _0397_
*444 _0398_
*445 _0399_
*446 _0400_
*447 _0401_
*448 _0402_
*449 _0403_
*450 _0404_
*451 _0405_
*452 _0406_
*453 _0407_
*454 _0408_
*455 _0409_
*456 _0410_
*457 _0411_
*458 _0412_
*459 _0413_
*460 _0414_
*461 _0415_
*462 _0416_
*463 _0417_
*464 _0418_
*465 _0419_
*466 _0420_
*467 _0421_
*468 _0422_
*469 _0423_
*470 _0424_
*471 _0425_
*472 _0426_
*473 _0427_
*474 _0428_
*475 _0429_
*476 _0430_
*477 _0431_
*478 _0432_
*479 _0433_
*480 _0434_
*481 _0435_
*482 _0436_
*483 _0437_
*484 _0438_
*485 _0439_
*486 _0440_
*487 _0441_
*488 _0442_
*489 _0443_
*490 _0444_
*491 _0445_
*492 _0446_
*493 _0447_
*494 _0448_
*495 _0449_
*496 _0450_
*497 _0451_
*498 _0452_
*499 _0453_
*500 _0454_
*501 _0455_
*502 _0456_
*503 _0457_
*504 _0458_
*505 _0459_
*506 _0460_
*507 _0461_
*508 _0462_
*509 _0463_
*510 _0464_
*511 _0465_
*512 _0466_
*513 _0467_
*514 _0468_
*515 _0469_
*516 _0470_
*517 _0471_
*518 _0472_
*519 _0473_
*520 _0474_
*521 _0475_
*522 _0476_
*523 _0477_
*524 _0478_
*525 _0479_
*526 _0480_
*527 _0481_
*528 _0482_
*529 _0483_
*530 _0484_
*531 _0485_
*532 _0486_
*533 _0487_
*534 _0488_
*535 _0489_
*536 _0490_
*537 _0491_
*538 _0492_
*539 _0493_
*540 _0494_
*541 _0495_
*542 _0496_
*543 _0497_
*544 _0498_
*545 _0499_
*546 _0500_
*547 _0501_
*548 _0502_
*549 _0503_
*550 _0504_
*551 _0505_
*552 _0506_
*553 _0507_
*554 _0508_
*555 _0509_
*556 _0510_
*557 _0511_
*558 _0512_
*559 _0513_
*560 _0514_
*561 _0515_
*562 _0516_
*563 _0517_
*564 _0518_
*565 _0519_
*566 _0520_
*567 _0521_
*568 _0522_
*569 _0523_
*570 _0524_
*571 _0525_
*572 _0526_
*573 _0527_
*574 _0528_
*575 _0529_
*576 _0530_
*577 _0531_
*578 _0532_
*579 _0533_
*580 _0534_
*581 _0535_
*582 _0536_
*583 _0537_
*584 _0538_
*585 _0539_
*586 _0540_
*587 _0541_
*588 _0542_
*589 _0543_
*590 _0544_
*591 _0545_
*592 _0546_
*593 _0547_
*594 _0548_
*595 _0549_
*596 _0550_
*597 _0551_
*598 _0552_
*599 _0553_
*600 _0554_
*601 _0555_
*602 _0556_
*603 _0557_
*604 _0558_
*605 _0559_
*606 _0560_
*607 _0561_
*608 _0562_
*609 _0563_
*610 _0564_
*611 _0565_
*612 _0566_
*613 _0567_
*614 _0568_
*615 _0569_
*616 _0570_
*617 _0571_
*618 _0572_
*619 _0573_
*620 _0574_
*621 _0575_
*622 _0576_
*623 _0577_
*624 _0578_
*625 _0579_
*626 _0580_
*627 _0581_
*628 _0582_
*629 _0583_
*630 _0584_
*631 _0585_
*632 _0586_
*633 _0587_
*634 _0588_
*635 _0589_
*636 _0590_
*637 _0591_
*638 _0592_
*639 _0593_
*640 _0594_
*641 _0595_
*642 _0596_
*643 _0597_
*644 _0598_
*645 _0599_
*646 _0600_
*647 _0601_
*648 _0602_
*649 _0603_
*650 _0604_
*651 _0605_
*652 _0606_
*653 _0607_
*654 _0608_
*655 _0609_
*656 _0610_
*657 _0611_
*658 _0612_
*659 _0613_
*660 _0614_
*661 _0615_
*662 _0616_
*663 _0617_
*664 _0618_
*665 _0619_
*666 _0620_
*667 _0621_
*668 _0622_
*669 _0623_
*670 _0624_
*671 _0625_
*672 _0626_
*673 _0627_
*674 _0628_
*675 _0629_
*676 _0630_
*677 _0631_
*678 _0632_
*679 _0633_
*680 _0634_
*681 _0635_
*682 _0636_
*683 _0637_
*684 _0638_
*685 _0639_
*686 _0640_
*687 _0641_
*688 _0642_
*689 _0643_
*690 _0644_
*691 _0645_
*692 _0646_
*693 _0647_
*694 _0648_
*695 _0649_
*696 _0650_
*697 _0651_
*698 _0652_
*699 _0653_
*700 _0654_
*701 _0655_
*702 _0656_
*703 _0657_
*704 _0658_
*705 _0659_
*706 _0660_
*707 _0661_
*708 _0662_
*709 clknet_0_clk
*710 clknet_4_0_0_clk
*711 clknet_4_10_0_clk
*712 clknet_4_11_0_clk
*713 clknet_4_12_0_clk
*714 clknet_4_13_0_clk
*715 clknet_4_14_0_clk
*716 clknet_4_15_0_clk
*717 clknet_4_1_0_clk
*718 clknet_4_2_0_clk
*719 clknet_4_3_0_clk
*720 clknet_4_4_0_clk
*721 clknet_4_5_0_clk
*722 clknet_4_6_0_clk
*723 clknet_4_7_0_clk
*724 clknet_4_8_0_clk
*725 clknet_4_9_0_clk
*726 net1
*727 net2
*728 net24
*729 net25
*730 net26
*731 net27
*732 net28
*733 net29
*734 net3
*735 net30
*736 net31
*737 net32
*738 net33
*739 net34
*740 net35
*741 net36
*742 net37
*743 net38
*744 net39
*745 net4
*746 net40
*747 net41
*748 net42
*749 net43
*750 net44
*751 net45
*752 net46
*753 net47
*754 net48
*755 net49
*756 net5
*757 net50
*758 net51
*759 net52
*760 net53
*761 net54
*762 net55
*763 net56
*764 net57
*765 net58
*766 net59
*767 net6
*768 net60
*769 net61
*770 net62
*771 net63
*772 net64
*773 net65
*774 net66
*775 net67
*776 net68
*777 net69
*778 net7
*779 net70
*780 net71
*781 net72
*782 net73
*783 net74
*784 net75
*785 net76
*786 net77
*787 net78
*788 net79
*789 net80
*790 net81
*791 net82
*792 net83
*793 net84
*794 net85
*795 net86
*796 net87
*797 net88
*798 net89
*799 vga_clock\.col_index\[0\]
*800 vga_clock\.col_index\[1\]
*801 vga_clock\.col_index_q\[0\]
*802 vga_clock\.col_index_q\[1\]
*803 vga_clock\.color\[0\]
*804 vga_clock\.color\[1\]
*805 vga_clock\.color\[2\]
*806 vga_clock\.color\[3\]
*807 vga_clock\.color\[4\]
*808 vga_clock\.color\[5\]
*809 vga_clock\.color_offset\[0\]
*810 vga_clock\.color_offset\[1\]
*811 vga_clock\.color_offset\[2\]
*812 vga_clock\.digit_0\.char\[0\]
*813 vga_clock\.digit_0\.char\[1\]
*814 vga_clock\.digit_0\.char\[2\]
*815 vga_clock\.digit_0\.char\[3\]
*816 vga_clock\.digit_0\.digit_index\[0\]
*817 vga_clock\.digit_0\.digit_index\[1\]
*818 vga_clock\.digit_0\.digit_index\[2\]
*819 vga_clock\.digit_0\.digit_index\[3\]
*820 vga_clock\.digit_0\.digit_index\[4\]
*821 vga_clock\.digit_0\.digit_index\[5\]
*822 vga_clock\.digit_0\.number\[0\]
*823 vga_clock\.digit_0\.number\[1\]
*824 vga_clock\.digit_0\.x_block\[0\]
*825 vga_clock\.digit_0\.x_block\[1\]
*826 vga_clock\.draw
*827 vga_clock\.font_0\.dout\[1\]
*828 vga_clock\.font_0\.dout\[2\]
*829 vga_clock\.font_0\.dout\[3\]
*830 vga_clock\.hrs_d\[0\]
*831 vga_clock\.hrs_d\[1\]
*832 vga_clock\.hrs_u\[0\]
*833 vga_clock\.hrs_u\[1\]
*834 vga_clock\.hrs_u\[2\]
*835 vga_clock\.hrs_u\[3\]
*836 vga_clock\.hsync
*837 vga_clock\.min_d\[0\]
*838 vga_clock\.min_d\[1\]
*839 vga_clock\.min_d\[2\]
*840 vga_clock\.min_u\[0\]
*841 vga_clock\.min_u\[1\]
*842 vga_clock\.min_u\[2\]
*843 vga_clock\.min_u\[3\]
*844 vga_clock\.pulse_hrs\.comp\[0\]
*845 vga_clock\.pulse_hrs\.comp\[1\]
*846 vga_clock\.pulse_hrs\.comp\[2\]
*847 vga_clock\.pulse_hrs\.comp\[3\]
*848 vga_clock\.pulse_hrs\.comp\[4\]
*849 vga_clock\.pulse_hrs\.count\[0\]
*850 vga_clock\.pulse_hrs\.count\[1\]
*851 vga_clock\.pulse_hrs\.count\[2\]
*852 vga_clock\.pulse_hrs\.count\[3\]
*853 vga_clock\.pulse_hrs\.count\[4\]
*854 vga_clock\.pulse_min\.comp\[0\]
*855 vga_clock\.pulse_min\.comp\[1\]
*856 vga_clock\.pulse_min\.comp\[2\]
*857 vga_clock\.pulse_min\.comp\[3\]
*858 vga_clock\.pulse_min\.comp\[4\]
*859 vga_clock\.pulse_min\.count\[0\]
*860 vga_clock\.pulse_min\.count\[1\]
*861 vga_clock\.pulse_min\.count\[2\]
*862 vga_clock\.pulse_min\.count\[3\]
*863 vga_clock\.pulse_min\.count\[4\]
*864 vga_clock\.pulse_sec\.comp\[0\]
*865 vga_clock\.pulse_sec\.comp\[1\]
*866 vga_clock\.pulse_sec\.comp\[2\]
*867 vga_clock\.pulse_sec\.comp\[3\]
*868 vga_clock\.pulse_sec\.comp\[4\]
*869 vga_clock\.pulse_sec\.count\[0\]
*870 vga_clock\.pulse_sec\.count\[1\]
*871 vga_clock\.pulse_sec\.count\[2\]
*872 vga_clock\.pulse_sec\.count\[3\]
*873 vga_clock\.pulse_sec\.count\[4\]
*874 vga_clock\.sec_counter\[0\]
*875 vga_clock\.sec_counter\[10\]
*876 vga_clock\.sec_counter\[11\]
*877 vga_clock\.sec_counter\[12\]
*878 vga_clock\.sec_counter\[13\]
*879 vga_clock\.sec_counter\[14\]
*880 vga_clock\.sec_counter\[15\]
*881 vga_clock\.sec_counter\[16\]
*882 vga_clock\.sec_counter\[17\]
*883 vga_clock\.sec_counter\[18\]
*884 vga_clock\.sec_counter\[19\]
*885 vga_clock\.sec_counter\[1\]
*886 vga_clock\.sec_counter\[20\]
*887 vga_clock\.sec_counter\[21\]
*888 vga_clock\.sec_counter\[22\]
*889 vga_clock\.sec_counter\[23\]
*890 vga_clock\.sec_counter\[24\]
*891 vga_clock\.sec_counter\[25\]
*892 vga_clock\.sec_counter\[2\]
*893 vga_clock\.sec_counter\[3\]
*894 vga_clock\.sec_counter\[4\]
*895 vga_clock\.sec_counter\[5\]
*896 vga_clock\.sec_counter\[6\]
*897 vga_clock\.sec_counter\[7\]
*898 vga_clock\.sec_counter\[8\]
*899 vga_clock\.sec_counter\[9\]
*900 vga_clock\.sec_d\[0\]
*901 vga_clock\.sec_d\[1\]
*902 vga_clock\.sec_d\[2\]
*903 vga_clock\.sec_u\[0\]
*904 vga_clock\.sec_u\[1\]
*905 vga_clock\.sec_u\[2\]
*906 vga_clock\.sec_u\[3\]
*907 vga_clock\.vga_0\.hc\[0\]
*908 vga_clock\.vga_0\.hc\[1\]
*909 vga_clock\.vga_0\.hc\[2\]
*910 vga_clock\.vga_0\.hc\[3\]
*911 vga_clock\.vga_0\.hc\[4\]
*912 vga_clock\.vga_0\.hc\[5\]
*913 vga_clock\.vga_0\.hc\[6\]
*914 vga_clock\.vga_0\.hc\[7\]
*915 vga_clock\.vga_0\.hc\[8\]
*916 vga_clock\.vga_0\.hc\[9\]
*917 vga_clock\.vga_0\.vc\[0\]
*918 vga_clock\.vga_0\.vc\[1\]
*919 vga_clock\.vga_0\.vc\[2\]
*920 vga_clock\.vga_0\.vc\[3\]
*921 vga_clock\.vga_0\.vc\[4\]
*922 vga_clock\.vga_0\.vc\[5\]
*923 vga_clock\.vga_0\.vc\[6\]
*924 vga_clock\.vga_0\.vc\[7\]
*925 vga_clock\.vga_0\.vc\[8\]
*926 vga_clock\.vga_0\.vc\[9\]
*927 vga_clock\.vga_0\.vsync
*928 vga_clock\.vga_0\.x_px\[0\]
*929 vga_clock\.vga_0\.x_px\[1\]
*930 vga_clock\.vga_0\.x_px\[2\]
*931 vga_clock\.vga_0\.x_px\[3\]
*932 vga_clock\.vga_0\.x_px\[6\]
*933 vga_clock\.vga_0\.x_px\[7\]
*934 vga_clock\.vga_0\.x_px\[8\]
*935 vga_clock\.vga_0\.x_px\[9\]
*936 vga_clock\.vga_0\.y_px\[0\]
*937 vga_clock\.vga_0\.y_px\[1\]
*938 vga_clock\.vga_0\.y_px\[2\]
*939 vga_clock\.vga_0\.y_px\[3\]
*940 vga_clock\.vga_0\.y_px\[4\]
*941 vga_clock\.vga_0\.y_px\[5\]
*942 vga_clock\.vga_0\.y_px\[6\]
*943 vga_clock\.vga_0\.y_px\[7\]
*944 vga_clock\.vga_0\.y_px\[8\]
*945 vga_clock\.vga_0\.y_px\[9\]
*946 vga_clock\.x_block_q\[5\]
*947 vga_clock\.y_block\[0\]
*948 vga_clock\.y_block\[1\]
*949 vga_clock\.y_block\[2\]
*950 vga_clock\.y_block\[3\]
*951 vga_clock\.y_block\[4\]
*952 vga_clock\.y_block\[5\]
*953 vga_clock\.y_block_q\[0\]
*954 vga_clock\.y_block_q\[1\]
*955 vga_clock\.y_block_q\[2\]
*956 vga_clock\.y_block_q\[3\]
*957 vga_clock\.y_block_q\[4\]
*958 vga_clock\.y_block_q\[5\]
*959 FILLER_0_0_109
*960 FILLER_0_0_113
*961 FILLER_0_0_125
*962 FILLER_0_0_137
*963 FILLER_0_0_141
*964 FILLER_0_0_15
*965 FILLER_0_0_153
*966 FILLER_0_0_165
*967 FILLER_0_0_169
*968 FILLER_0_0_181
*969 FILLER_0_0_193
*970 FILLER_0_0_197
*971 FILLER_0_0_209
*972 FILLER_0_0_221
*973 FILLER_0_0_225
*974 FILLER_0_0_237
*975 FILLER_0_0_249
*976 FILLER_0_0_253
*977 FILLER_0_0_265
*978 FILLER_0_0_27
*979 FILLER_0_0_277
*980 FILLER_0_0_281
*981 FILLER_0_0_29
*982 FILLER_0_0_290
*983 FILLER_0_0_3
*984 FILLER_0_0_305
*985 FILLER_0_0_314
*986 FILLER_0_0_326
*987 FILLER_0_0_334
*988 FILLER_0_0_337
*989 FILLER_0_0_349
*990 FILLER_0_0_41
*991 FILLER_0_0_53
*992 FILLER_0_0_57
*993 FILLER_0_0_69
*994 FILLER_0_0_81
*995 FILLER_0_0_85
*996 FILLER_0_0_97
*997 FILLER_0_10_11
*998 FILLER_0_10_113
*999 FILLER_0_10_121
*1000 FILLER_0_10_141
*1001 FILLER_0_10_153
*1002 FILLER_0_10_162
*1003 FILLER_0_10_184
*1004 FILLER_0_10_200
*1005 FILLER_0_10_212
*1006 FILLER_0_10_220
*1007 FILLER_0_10_245
*1008 FILLER_0_10_251
*1009 FILLER_0_10_253
*1010 FILLER_0_10_265
*1011 FILLER_0_10_280
*1012 FILLER_0_10_292
*1013 FILLER_0_10_3
*1014 FILLER_0_10_306
*1015 FILLER_0_10_322
*1016 FILLER_0_10_334
*1017 FILLER_0_10_346
*1018 FILLER_0_10_350
*1019 FILLER_0_10_37
*1020 FILLER_0_10_57
*1021 FILLER_0_10_69
*1022 FILLER_0_10_81
*1023 FILLER_0_10_85
*1024 FILLER_0_10_90
*1025 FILLER_0_11_100
*1026 FILLER_0_11_108
*1027 FILLER_0_11_11
*1028 FILLER_0_11_129
*1029 FILLER_0_11_147
*1030 FILLER_0_11_151
*1031 FILLER_0_11_169
*1032 FILLER_0_11_17
*1033 FILLER_0_11_183
*1034 FILLER_0_11_207
*1035 FILLER_0_11_215
*1036 FILLER_0_11_25
*1037 FILLER_0_11_254
*1038 FILLER_0_11_281
*1039 FILLER_0_11_295
*1040 FILLER_0_11_3
*1041 FILLER_0_11_322
*1042 FILLER_0_11_334
*1043 FILLER_0_11_337
*1044 FILLER_0_11_349
*1045 FILLER_0_11_35
*1046 FILLER_0_11_47
*1047 FILLER_0_11_55
*1048 FILLER_0_11_79
*1049 FILLER_0_11_91
*1050 FILLER_0_12_108
*1051 FILLER_0_12_132
*1052 FILLER_0_12_141
*1053 FILLER_0_12_153
*1054 FILLER_0_12_159
*1055 FILLER_0_12_167
*1056 FILLER_0_12_190
*1057 FILLER_0_12_200
*1058 FILLER_0_12_212
*1059 FILLER_0_12_243
*1060 FILLER_0_12_25
*1061 FILLER_0_12_251
*1062 FILLER_0_12_253
*1063 FILLER_0_12_29
*1064 FILLER_0_12_3
*1065 FILLER_0_12_325
*1066 FILLER_0_12_337
*1067 FILLER_0_12_349
*1068 FILLER_0_12_41
*1069 FILLER_0_12_53
*1070 FILLER_0_12_61
*1071 FILLER_0_12_90
*1072 FILLER_0_12_96
*1073 FILLER_0_13_107
*1074 FILLER_0_13_11
*1075 FILLER_0_13_111
*1076 FILLER_0_13_129
*1077 FILLER_0_13_141
*1078 FILLER_0_13_159
*1079 FILLER_0_13_167
*1080 FILLER_0_13_169
*1081 FILLER_0_13_193
*1082 FILLER_0_13_211
*1083 FILLER_0_13_219
*1084 FILLER_0_13_223
*1085 FILLER_0_13_225
*1086 FILLER_0_13_241
*1087 FILLER_0_13_253
*1088 FILLER_0_13_278
*1089 FILLER_0_13_297
*1090 FILLER_0_13_3
*1091 FILLER_0_13_305
*1092 FILLER_0_13_309
*1093 FILLER_0_13_327
*1094 FILLER_0_13_335
*1095 FILLER_0_13_337
*1096 FILLER_0_13_349
*1097 FILLER_0_13_45
*1098 FILLER_0_13_83
*1099 FILLER_0_13_95
*1100 FILLER_0_14_116
*1101 FILLER_0_14_124
*1102 FILLER_0_14_136
*1103 FILLER_0_14_141
*1104 FILLER_0_14_149
*1105 FILLER_0_14_15
*1106 FILLER_0_14_159
*1107 FILLER_0_14_171
*1108 FILLER_0_14_178
*1109 FILLER_0_14_184
*1110 FILLER_0_14_19
*1111 FILLER_0_14_205
*1112 FILLER_0_14_224
*1113 FILLER_0_14_231
*1114 FILLER_0_14_243
*1115 FILLER_0_14_251
*1116 FILLER_0_14_253
*1117 FILLER_0_14_265
*1118 FILLER_0_14_273
*1119 FILLER_0_14_289
*1120 FILLER_0_14_3
*1121 FILLER_0_14_301
*1122 FILLER_0_14_307
*1123 FILLER_0_14_309
*1124 FILLER_0_14_313
*1125 FILLER_0_14_319
*1126 FILLER_0_14_323
*1127 FILLER_0_14_329
*1128 FILLER_0_14_346
*1129 FILLER_0_14_350
*1130 FILLER_0_14_45
*1131 FILLER_0_14_76
*1132 FILLER_0_14_85
*1133 FILLER_0_15_11
*1134 FILLER_0_15_133
*1135 FILLER_0_15_137
*1136 FILLER_0_15_145
*1137 FILLER_0_15_158
*1138 FILLER_0_15_166
*1139 FILLER_0_15_178
*1140 FILLER_0_15_182
*1141 FILLER_0_15_190
*1142 FILLER_0_15_202
*1143 FILLER_0_15_210
*1144 FILLER_0_15_223
*1145 FILLER_0_15_241
*1146 FILLER_0_15_253
*1147 FILLER_0_15_260
*1148 FILLER_0_15_272
*1149 FILLER_0_15_28
*1150 FILLER_0_15_281
*1151 FILLER_0_15_293
*1152 FILLER_0_15_3
*1153 FILLER_0_15_337
*1154 FILLER_0_15_349
*1155 FILLER_0_15_42
*1156 FILLER_0_15_55
*1157 FILLER_0_15_57
*1158 FILLER_0_15_81
*1159 FILLER_0_15_93
*1160 FILLER_0_16_11
*1161 FILLER_0_16_119
*1162 FILLER_0_16_164
*1163 FILLER_0_16_172
*1164 FILLER_0_16_185
*1165 FILLER_0_16_193
*1166 FILLER_0_16_197
*1167 FILLER_0_16_245
*1168 FILLER_0_16_251
*1169 FILLER_0_16_273
*1170 FILLER_0_16_285
*1171 FILLER_0_16_29
*1172 FILLER_0_16_3
*1173 FILLER_0_16_305
*1174 FILLER_0_16_315
*1175 FILLER_0_16_329
*1176 FILLER_0_16_346
*1177 FILLER_0_16_350
*1178 FILLER_0_16_41
*1179 FILLER_0_16_61
*1180 FILLER_0_16_67
*1181 FILLER_0_16_85
*1182 FILLER_0_17_11
*1183 FILLER_0_17_110
*1184 FILLER_0_17_117
*1185 FILLER_0_17_152
*1186 FILLER_0_17_158
*1187 FILLER_0_17_167
*1188 FILLER_0_17_169
*1189 FILLER_0_17_183
*1190 FILLER_0_17_195
*1191 FILLER_0_17_222
*1192 FILLER_0_17_235
*1193 FILLER_0_17_239
*1194 FILLER_0_17_281
*1195 FILLER_0_17_293
*1196 FILLER_0_17_3
*1197 FILLER_0_17_33
*1198 FILLER_0_17_334
*1199 FILLER_0_17_337
*1200 FILLER_0_17_347
*1201 FILLER_0_17_45
*1202 FILLER_0_17_49
*1203 FILLER_0_17_55
*1204 FILLER_0_17_57
*1205 FILLER_0_17_69
*1206 FILLER_0_17_81
*1207 FILLER_0_18_101
*1208 FILLER_0_18_130
*1209 FILLER_0_18_138
*1210 FILLER_0_18_141
*1211 FILLER_0_18_153
*1212 FILLER_0_18_162
*1213 FILLER_0_18_190
*1214 FILLER_0_18_197
*1215 FILLER_0_18_209
*1216 FILLER_0_18_215
*1217 FILLER_0_18_229
*1218 FILLER_0_18_24
*1219 FILLER_0_18_241
*1220 FILLER_0_18_250
*1221 FILLER_0_18_282
*1222 FILLER_0_18_29
*1223 FILLER_0_18_294
*1224 FILLER_0_18_3
*1225 FILLER_0_18_302
*1226 FILLER_0_18_319
*1227 FILLER_0_18_328
*1228 FILLER_0_18_340
*1229 FILLER_0_18_348
*1230 FILLER_0_18_35
*1231 FILLER_0_18_44
*1232 FILLER_0_18_54
*1233 FILLER_0_18_62
*1234 FILLER_0_18_7
*1235 FILLER_0_18_74
*1236 FILLER_0_18_82
*1237 FILLER_0_19_109
*1238 FILLER_0_19_11
*1239 FILLER_0_19_113
*1240 FILLER_0_19_125
*1241 FILLER_0_19_137
*1242 FILLER_0_19_149
*1243 FILLER_0_19_157
*1244 FILLER_0_19_164
*1245 FILLER_0_19_172
*1246 FILLER_0_19_184
*1247 FILLER_0_19_197
*1248 FILLER_0_19_209
*1249 FILLER_0_19_221
*1250 FILLER_0_19_225
*1251 FILLER_0_19_233
*1252 FILLER_0_19_243
*1253 FILLER_0_19_255
*1254 FILLER_0_19_271
*1255 FILLER_0_19_279
*1256 FILLER_0_19_281
*1257 FILLER_0_19_293
*1258 FILLER_0_19_3
*1259 FILLER_0_19_30
*1260 FILLER_0_19_305
*1261 FILLER_0_19_314
*1262 FILLER_0_19_318
*1263 FILLER_0_19_329
*1264 FILLER_0_19_335
*1265 FILLER_0_19_337
*1266 FILLER_0_19_349
*1267 FILLER_0_19_76
*1268 FILLER_0_1_105
*1269 FILLER_0_1_111
*1270 FILLER_0_1_113
*1271 FILLER_0_1_125
*1272 FILLER_0_1_137
*1273 FILLER_0_1_149
*1274 FILLER_0_1_15
*1275 FILLER_0_1_161
*1276 FILLER_0_1_167
*1277 FILLER_0_1_169
*1278 FILLER_0_1_181
*1279 FILLER_0_1_193
*1280 FILLER_0_1_201
*1281 FILLER_0_1_230
*1282 FILLER_0_1_245
*1283 FILLER_0_1_267
*1284 FILLER_0_1_27
*1285 FILLER_0_1_279
*1286 FILLER_0_1_281
*1287 FILLER_0_1_290
*1288 FILLER_0_1_3
*1289 FILLER_0_1_310
*1290 FILLER_0_1_322
*1291 FILLER_0_1_334
*1292 FILLER_0_1_337
*1293 FILLER_0_1_349
*1294 FILLER_0_1_39
*1295 FILLER_0_1_51
*1296 FILLER_0_1_55
*1297 FILLER_0_1_57
*1298 FILLER_0_1_69
*1299 FILLER_0_1_81
*1300 FILLER_0_1_93
*1301 FILLER_0_20_101
*1302 FILLER_0_20_105
*1303 FILLER_0_20_11
*1304 FILLER_0_20_122
*1305 FILLER_0_20_139
*1306 FILLER_0_20_147
*1307 FILLER_0_20_159
*1308 FILLER_0_20_165
*1309 FILLER_0_20_197
*1310 FILLER_0_20_213
*1311 FILLER_0_20_221
*1312 FILLER_0_20_233
*1313 FILLER_0_20_245
*1314 FILLER_0_20_251
*1315 FILLER_0_20_253
*1316 FILLER_0_20_271
*1317 FILLER_0_20_29
*1318 FILLER_0_20_292
*1319 FILLER_0_20_3
*1320 FILLER_0_20_304
*1321 FILLER_0_20_309
*1322 FILLER_0_20_340
*1323 FILLER_0_20_348
*1324 FILLER_0_20_55
*1325 FILLER_0_20_81
*1326 FILLER_0_21_100
*1327 FILLER_0_21_116
*1328 FILLER_0_21_147
*1329 FILLER_0_21_165
*1330 FILLER_0_21_194
*1331 FILLER_0_21_204
*1332 FILLER_0_21_220
*1333 FILLER_0_21_239
*1334 FILLER_0_21_246
*1335 FILLER_0_21_278
*1336 FILLER_0_21_281
*1337 FILLER_0_21_3
*1338 FILLER_0_21_301
*1339 FILLER_0_21_308
*1340 FILLER_0_21_340
*1341 FILLER_0_21_348
*1342 FILLER_0_21_39
*1343 FILLER_0_21_51
*1344 FILLER_0_21_55
*1345 FILLER_0_21_78
*1346 FILLER_0_21_90
*1347 FILLER_0_22_103
*1348 FILLER_0_22_111
*1349 FILLER_0_22_117
*1350 FILLER_0_22_129
*1351 FILLER_0_22_141
*1352 FILLER_0_22_153
*1353 FILLER_0_22_172
*1354 FILLER_0_22_195
*1355 FILLER_0_22_197
*1356 FILLER_0_22_205
*1357 FILLER_0_22_215
*1358 FILLER_0_22_223
*1359 FILLER_0_22_234
*1360 FILLER_0_22_251
*1361 FILLER_0_22_253
*1362 FILLER_0_22_26
*1363 FILLER_0_22_278
*1364 FILLER_0_22_286
*1365 FILLER_0_22_29
*1366 FILLER_0_22_291
*1367 FILLER_0_22_299
*1368 FILLER_0_22_3
*1369 FILLER_0_22_350
*1370 FILLER_0_22_49
*1371 FILLER_0_22_61
*1372 FILLER_0_22_73
*1373 FILLER_0_22_80
*1374 FILLER_0_22_91
*1375 FILLER_0_23_111
*1376 FILLER_0_23_113
*1377 FILLER_0_23_129
*1378 FILLER_0_23_141
*1379 FILLER_0_23_159
*1380 FILLER_0_23_167
*1381 FILLER_0_23_169
*1382 FILLER_0_23_184
*1383 FILLER_0_23_196
*1384 FILLER_0_23_208
*1385 FILLER_0_23_225
*1386 FILLER_0_23_237
*1387 FILLER_0_23_24
*1388 FILLER_0_23_243
*1389 FILLER_0_23_257
*1390 FILLER_0_23_265
*1391 FILLER_0_23_281
*1392 FILLER_0_23_293
*1393 FILLER_0_23_3
*1394 FILLER_0_23_305
*1395 FILLER_0_23_312
*1396 FILLER_0_23_340
*1397 FILLER_0_23_348
*1398 FILLER_0_23_50
*1399 FILLER_0_23_71
*1400 FILLER_0_24_108
*1401 FILLER_0_24_116
*1402 FILLER_0_24_124
*1403 FILLER_0_24_131
*1404 FILLER_0_24_139
*1405 FILLER_0_24_141
*1406 FILLER_0_24_145
*1407 FILLER_0_24_15
*1408 FILLER_0_24_162
*1409 FILLER_0_24_174
*1410 FILLER_0_24_186
*1411 FILLER_0_24_194
*1412 FILLER_0_24_225
*1413 FILLER_0_24_234
*1414 FILLER_0_24_246
*1415 FILLER_0_24_253
*1416 FILLER_0_24_27
*1417 FILLER_0_24_29
*1418 FILLER_0_24_292
*1419 FILLER_0_24_3
*1420 FILLER_0_24_304
*1421 FILLER_0_24_309
*1422 FILLER_0_24_342
*1423 FILLER_0_24_350
*1424 FILLER_0_24_59
*1425 FILLER_0_24_81
*1426 FILLER_0_24_85
*1427 FILLER_0_24_95
*1428 FILLER_0_25_139
*1429 FILLER_0_25_15
*1430 FILLER_0_25_164
*1431 FILLER_0_25_169
*1432 FILLER_0_25_181
*1433 FILLER_0_25_189
*1434 FILLER_0_25_21
*1435 FILLER_0_25_212
*1436 FILLER_0_25_233
*1437 FILLER_0_25_248
*1438 FILLER_0_25_260
*1439 FILLER_0_25_278
*1440 FILLER_0_25_281
*1441 FILLER_0_25_293
*1442 FILLER_0_25_3
*1443 FILLER_0_25_310
*1444 FILLER_0_25_348
*1445 FILLER_0_25_36
*1446 FILLER_0_25_55
*1447 FILLER_0_25_57
*1448 FILLER_0_25_83
*1449 FILLER_0_26_105
*1450 FILLER_0_26_122
*1451 FILLER_0_26_131
*1452 FILLER_0_26_139
*1453 FILLER_0_26_141
*1454 FILLER_0_26_153
*1455 FILLER_0_26_172
*1456 FILLER_0_26_184
*1457 FILLER_0_26_23
*1458 FILLER_0_26_245
*1459 FILLER_0_26_251
*1460 FILLER_0_26_253
*1461 FILLER_0_26_260
*1462 FILLER_0_26_267
*1463 FILLER_0_26_27
*1464 FILLER_0_26_276
*1465 FILLER_0_26_3
*1466 FILLER_0_26_300
*1467 FILLER_0_26_307
*1468 FILLER_0_26_325
*1469 FILLER_0_26_346
*1470 FILLER_0_26_350
*1471 FILLER_0_26_53
*1472 FILLER_0_26_68
*1473 FILLER_0_26_83
*1474 FILLER_0_26_98
*1475 FILLER_0_27_100
*1476 FILLER_0_27_106
*1477 FILLER_0_27_113
*1478 FILLER_0_27_131
*1479 FILLER_0_27_143
*1480 FILLER_0_27_151
*1481 FILLER_0_27_182
*1482 FILLER_0_27_194
*1483 FILLER_0_27_214
*1484 FILLER_0_27_222
*1485 FILLER_0_27_240
*1486 FILLER_0_27_274
*1487 FILLER_0_27_281
*1488 FILLER_0_27_299
*1489 FILLER_0_27_3
*1490 FILLER_0_27_31
*1491 FILLER_0_27_311
*1492 FILLER_0_27_316
*1493 FILLER_0_27_334
*1494 FILLER_0_27_337
*1495 FILLER_0_27_349
*1496 FILLER_0_27_39
*1497 FILLER_0_27_54
*1498 FILLER_0_27_57
*1499 FILLER_0_27_69
*1500 FILLER_0_27_82
*1501 FILLER_0_28_103
*1502 FILLER_0_28_128
*1503 FILLER_0_28_141
*1504 FILLER_0_28_153
*1505 FILLER_0_28_157
*1506 FILLER_0_28_168
*1507 FILLER_0_28_194
*1508 FILLER_0_28_197
*1509 FILLER_0_28_209
*1510 FILLER_0_28_217
*1511 FILLER_0_28_222
*1512 FILLER_0_28_23
*1513 FILLER_0_28_230
*1514 FILLER_0_28_242
*1515 FILLER_0_28_248
*1516 FILLER_0_28_261
*1517 FILLER_0_28_27
*1518 FILLER_0_28_273
*1519 FILLER_0_28_279
*1520 FILLER_0_28_29
*1521 FILLER_0_28_3
*1522 FILLER_0_28_301
*1523 FILLER_0_28_307
*1524 FILLER_0_28_309
*1525 FILLER_0_28_315
*1526 FILLER_0_28_324
*1527 FILLER_0_28_328
*1528 FILLER_0_28_345
*1529 FILLER_0_28_41
*1530 FILLER_0_28_52
*1531 FILLER_0_28_58
*1532 FILLER_0_28_70
*1533 FILLER_0_28_95
*1534 FILLER_0_29_109
*1535 FILLER_0_29_11
*1536 FILLER_0_29_113
*1537 FILLER_0_29_124
*1538 FILLER_0_29_136
*1539 FILLER_0_29_149
*1540 FILLER_0_29_167
*1541 FILLER_0_29_17
*1542 FILLER_0_29_174
*1543 FILLER_0_29_193
*1544 FILLER_0_29_205
*1545 FILLER_0_29_225
*1546 FILLER_0_29_240
*1547 FILLER_0_29_262
*1548 FILLER_0_29_274
*1549 FILLER_0_29_281
*1550 FILLER_0_29_3
*1551 FILLER_0_29_335
*1552 FILLER_0_29_337
*1553 FILLER_0_29_349
*1554 FILLER_0_29_41
*1555 FILLER_0_29_45
*1556 FILLER_0_29_54
*1557 FILLER_0_29_64
*1558 FILLER_0_2_109
*1559 FILLER_0_2_121
*1560 FILLER_0_2_133
*1561 FILLER_0_2_139
*1562 FILLER_0_2_141
*1563 FILLER_0_2_15
*1564 FILLER_0_2_153
*1565 FILLER_0_2_165
*1566 FILLER_0_2_177
*1567 FILLER_0_2_189
*1568 FILLER_0_2_195
*1569 FILLER_0_2_197
*1570 FILLER_0_2_27
*1571 FILLER_0_2_29
*1572 FILLER_0_2_3
*1573 FILLER_0_2_318
*1574 FILLER_0_2_330
*1575 FILLER_0_2_342
*1576 FILLER_0_2_350
*1577 FILLER_0_2_41
*1578 FILLER_0_2_53
*1579 FILLER_0_2_65
*1580 FILLER_0_2_77
*1581 FILLER_0_2_83
*1582 FILLER_0_2_85
*1583 FILLER_0_2_97
*1584 FILLER_0_30_102
*1585 FILLER_0_30_110
*1586 FILLER_0_30_120
*1587 FILLER_0_30_127
*1588 FILLER_0_30_141
*1589 FILLER_0_30_156
*1590 FILLER_0_30_164
*1591 FILLER_0_30_189
*1592 FILLER_0_30_195
*1593 FILLER_0_30_197
*1594 FILLER_0_30_205
*1595 FILLER_0_30_240
*1596 FILLER_0_30_248
*1597 FILLER_0_30_271
*1598 FILLER_0_30_283
*1599 FILLER_0_30_289
*1600 FILLER_0_30_29
*1601 FILLER_0_30_293
*1602 FILLER_0_30_3
*1603 FILLER_0_30_304
*1604 FILLER_0_30_329
*1605 FILLER_0_30_349
*1606 FILLER_0_30_37
*1607 FILLER_0_30_54
*1608 FILLER_0_30_82
*1609 FILLER_0_31_108
*1610 FILLER_0_31_11
*1611 FILLER_0_31_113
*1612 FILLER_0_31_117
*1613 FILLER_0_31_152
*1614 FILLER_0_31_182
*1615 FILLER_0_31_194
*1616 FILLER_0_31_199
*1617 FILLER_0_31_222
*1618 FILLER_0_31_232
*1619 FILLER_0_31_244
*1620 FILLER_0_31_249
*1621 FILLER_0_31_254
*1622 FILLER_0_31_258
*1623 FILLER_0_31_281
*1624 FILLER_0_31_290
*1625 FILLER_0_31_296
*1626 FILLER_0_31_3
*1627 FILLER_0_31_304
*1628 FILLER_0_31_337
*1629 FILLER_0_31_34
*1630 FILLER_0_31_349
*1631 FILLER_0_31_46
*1632 FILLER_0_31_54
*1633 FILLER_0_31_73
*1634 FILLER_0_31_96
*1635 FILLER_0_32_109
*1636 FILLER_0_32_125
*1637 FILLER_0_32_137
*1638 FILLER_0_32_141
*1639 FILLER_0_32_153
*1640 FILLER_0_32_165
*1641 FILLER_0_32_179
*1642 FILLER_0_32_191
*1643 FILLER_0_32_195
*1644 FILLER_0_32_197
*1645 FILLER_0_32_205
*1646 FILLER_0_32_210
*1647 FILLER_0_32_218
*1648 FILLER_0_32_231
*1649 FILLER_0_32_239