*SPEF "ieee 1481-1999"
*DESIGN "tt_um_frequency_counter"
*DATE "11:11:11 Fri 11 11, 1111"
*VENDOR "OpenRCX"
*PROGRAM "Parallel Extraction"
*VERSION "1.0"
*DESIGN_FLOW "NAME_SCOPE LOCAL" "PIN_CAP NONE"
*DIVIDER /
*DELIMITER :
*BUS_DELIMITER []
*T_UNIT 1 NS
*C_UNIT 1 PF
*R_UNIT 1 OHM
*L_UNIT 1 HENRY

*NAME_MAP
*3 clk
*4 ena
*5 rst_n
*6 ui_in[0]
*7 ui_in[1]
*8 ui_in[2]
*9 ui_in[3]
*10 ui_in[4]
*11 ui_in[5]
*12 ui_in[6]
*13 ui_in[7]
*14 uio_in[0]
*15 uio_in[1]
*16 uio_in[2]
*17 uio_in[3]
*18 uio_in[4]
*19 uio_in[5]
*20 uio_in[6]
*21 uio_in[7]
*22 uio_oe[0]
*23 uio_oe[1]
*24 uio_oe[2]
*25 uio_oe[3]
*26 uio_oe[4]
*27 uio_oe[5]
*28 uio_oe[6]
*29 uio_oe[7]
*30 uio_out[0]
*31 uio_out[1]
*32 uio_out[2]
*33 uio_out[3]
*34 uio_out[4]
*35 uio_out[5]
*36 uio_out[6]
*37 uio_out[7]
*38 uo_out[0]
*39 uo_out[1]
*40 uo_out[2]
*41 uo_out[3]
*42 uo_out[4]
*43 uo_out[5]
*44 uo_out[6]
*45 uo_out[7]
*46 _000_
*47 _001_
*48 _002_
*49 _003_
*50 _004_
*51 _005_
*52 _006_
*53 _007_
*54 _008_
*55 _009_
*56 _010_
*57 _011_
*58 _012_
*59 _013_
*60 _014_
*61 _015_
*62 _016_
*63 _017_
*64 _018_
*65 _019_
*66 _020_
*67 _021_
*68 _022_
*69 _023_
*70 _024_
*71 _025_
*72 _026_
*73 _027_
*74 _028_
*75 _029_
*76 _030_
*77 _031_
*78 _032_
*79 _033_
*80 _034_
*81 _035_
*82 _036_
*83 _037_
*84 _038_
*85 _039_
*86 _040_
*87 _041_
*88 _042_
*89 _043_
*90 _044_
*91 _045_
*92 _046_
*93 _047_
*94 _048_
*95 _049_
*96 _050_
*97 _051_
*98 _052_
*99 _053_
*100 _054_
*101 _055_
*102 _056_
*103 _057_
*104 _058_
*105 _059_
*106 _060_
*107 _061_
*108 _062_
*109 _063_
*110 _064_
*111 _065_
*112 _066_
*113 _067_
*114 _068_
*115 _069_
*116 _070_
*117 _071_
*118 _072_
*119 _073_
*120 _074_
*121 _075_
*122 _076_
*123 _077_
*124 _078_
*125 _079_
*126 _080_
*127 _081_
*128 _082_
*129 _083_
*130 _084_
*131 _085_
*132 _086_
*133 _087_
*134 _088_
*135 _089_
*136 _090_
*137 _091_
*138 _092_
*139 _093_
*140 _094_
*141 _095_
*142 _096_
*143 _097_
*144 _098_
*145 _099_
*146 _100_
*147 _101_
*148 _102_
*149 _103_
*150 _104_
*151 _105_
*152 _106_
*153 _107_
*154 _108_
*155 _109_
*156 _110_
*157 _111_
*158 _112_
*159 _113_
*160 _114_
*161 _115_
*162 _116_
*163 _117_
*164 _118_
*165 _119_
*166 _120_
*167 _121_
*168 _122_
*169 _123_
*170 _124_
*171 _125_
*172 _126_
*173 _127_
*174 _128_
*175 _129_
*176 _130_
*177 _131_
*178 _132_
*179 _133_
*180 _134_
*181 _135_
*182 _136_
*183 _137_
*184 _138_
*185 _139_
*186 _140_
*187 _141_
*188 _142_
*189 _143_
*190 _144_
*191 _145_
*192 _146_
*193 _147_
*194 _148_
*195 _149_
*196 _150_
*197 _151_
*198 _152_
*199 _153_
*200 _154_
*201 _155_
*202 _156_
*203 _157_
*204 _158_
*205 _159_
*206 _160_
*207 _161_
*208 _162_
*209 _163_
*210 _164_
*211 _165_
*212 _166_
*213 _167_
*214 _168_
*215 _169_
*216 _170_
*217 _171_
*218 _172_
*219 _173_
*220 _174_
*221 _175_
*222 _176_
*223 _177_
*224 _178_
*225 _179_
*226 _180_
*227 _181_
*228 _182_
*229 _183_
*230 _184_
*231 _185_
*232 _186_
*233 _187_
*234 _188_
*235 _189_
*236 _190_
*237 _191_
*238 _192_
*239 _193_
*240 _194_
*241 _195_
*242 _196_
*243 _197_
*244 _198_
*245 _199_
*246 _200_
*247 _201_
*248 _202_
*249 _203_
*250 _204_
*251 _205_
*252 _206_
*253 _207_
*254 _208_
*255 _209_
*256 _210_
*257 _211_
*258 _212_
*259 _213_
*260 _214_
*261 _215_
*262 _216_
*263 _217_
*264 _218_
*265 _219_
*266 _220_
*267 _221_
*268 _222_
*269 _223_
*270 _224_
*271 _225_
*272 _226_
*273 _227_
*274 _228_
*275 _229_
*276 _230_
*277 _231_
*278 _232_
*279 _233_
*280 _234_
*281 _235_
*282 _236_
*283 _237_
*284 _238_
*285 _239_
*286 _240_
*287 _241_
*288 _242_
*289 _243_
*290 _244_
*291 _245_
*292 clknet_0_clk
*293 clknet_2_0__leaf_clk
*294 clknet_2_1__leaf_clk
*295 clknet_2_2__leaf_clk
*296 clknet_2_3__leaf_clk
*297 frequency_counter\.clk_counter\[0\]
*298 frequency_counter\.clk_counter\[10\]
*299 frequency_counter\.clk_counter\[11\]
*300 frequency_counter\.clk_counter\[1\]
*301 frequency_counter\.clk_counter\[2\]
*302 frequency_counter\.clk_counter\[3\]
*303 frequency_counter\.clk_counter\[4\]
*304 frequency_counter\.clk_counter\[5\]
*305 frequency_counter\.clk_counter\[6\]
*306 frequency_counter\.clk_counter\[7\]
*307 frequency_counter\.clk_counter\[8\]
*308 frequency_counter\.clk_counter\[9\]
*309 frequency_counter\.digit
*310 frequency_counter\.edge_counter\[0\]
*311 frequency_counter\.edge_counter\[1\]
*312 frequency_counter\.edge_counter\[2\]
*313 frequency_counter\.edge_counter\[3\]
*314 frequency_counter\.edge_counter\[4\]
*315 frequency_counter\.edge_counter\[5\]
*316 frequency_counter\.edge_counter\[6\]
*317 frequency_counter\.edge_detect0\.q0
*318 frequency_counter\.edge_detect0\.q1
*319 frequency_counter\.edge_detect0\.q2
*320 frequency_counter\.seven_segment0\.load
*321 frequency_counter\.seven_segment0\.ten_count\[0\]
*322 frequency_counter\.seven_segment0\.ten_count\[1\]
*323 frequency_counter\.seven_segment0\.ten_count\[2\]
*324 frequency_counter\.seven_segment0\.ten_count\[3\]
*325 frequency_counter\.seven_segment0\.ten_count_reg\[0\]
*326 frequency_counter\.seven_segment0\.ten_count_reg\[1\]
*327 frequency_counter\.seven_segment0\.ten_count_reg\[2\]
*328 frequency_counter\.seven_segment0\.ten_count_reg\[3\]
*329 frequency_counter\.seven_segment0\.unit_count\[0\]
*330 frequency_counter\.seven_segment0\.unit_count\[1\]
*331 frequency_counter\.seven_segment0\.unit_count\[2\]
*332 frequency_counter\.seven_segment0\.unit_count\[3\]
*333 frequency_counter\.seven_segment0\.unit_count_reg\[0\]
*334 frequency_counter\.seven_segment0\.unit_count_reg\[1\]
*335 frequency_counter\.seven_segment0\.unit_count_reg\[2\]
*336 frequency_counter\.seven_segment0\.unit_count_reg\[3\]
*337 frequency_counter\.update_period\[0\]
*338 frequency_counter\.update_period\[10\]
*339 frequency_counter\.update_period\[11\]
*340 frequency_counter\.update_period\[4\]
*341 frequency_counter\.update_period\[5\]
*342 frequency_counter\.update_period\[6\]
*343 frequency_counter\.update_period\[7\]
*344 frequency_counter\.update_period\[8\]
*345 frequency_counter\.update_period\[9\]
*346 net1
*347 net10
*348 net11
*349 net12
*350 net13
*351 net14
*352 net15
*353 net16
*354 net17
*355 net18
*356 net19
*357 net2
*358 net20
*359 net21
*360 net22
*361 net23
*362 net24
*363 net25
*364 net26
*365 net27
*366 net3
*367 net4
*368 net5
*369 net6
*370 net7
*371 net8
*372 net9
*373 FILLER_0_0_109
*374 FILLER_0_0_113
*375 FILLER_0_0_125
*376 FILLER_0_0_137
*377 FILLER_0_0_141
*378 FILLER_0_0_15
*379 FILLER_0_0_153
*380 FILLER_0_0_165
*381 FILLER_0_0_169
*382 FILLER_0_0_181
*383 FILLER_0_0_193
*384 FILLER_0_0_197
*385 FILLER_0_0_209
*386 FILLER_0_0_221
*387 FILLER_0_0_225
*388 FILLER_0_0_237
*389 FILLER_0_0_249
*390 FILLER_0_0_253
*391 FILLER_0_0_265
*392 FILLER_0_0_27
*393 FILLER_0_0_277
*394 FILLER_0_0_281
*395 FILLER_0_0_29
*396 FILLER_0_0_293
*397 FILLER_0_0_3
*398 FILLER_0_0_305
*399 FILLER_0_0_309
*400 FILLER_0_0_321
*401 FILLER_0_0_333
*402 FILLER_0_0_337
*403 FILLER_0_0_349
*404 FILLER_0_0_41
*405 FILLER_0_0_53
*406 FILLER_0_0_57
*407 FILLER_0_0_69
*408 FILLER_0_0_81
*409 FILLER_0_0_85
*410 FILLER_0_0_97
*411 FILLER_0_10_109
*412 FILLER_0_10_121
*413 FILLER_0_10_133
*414 FILLER_0_10_139
*415 FILLER_0_10_141
*416 FILLER_0_10_15
*417 FILLER_0_10_153
*418 FILLER_0_10_165
*419 FILLER_0_10_177
*420 FILLER_0_10_189
*421 FILLER_0_10_195
*422 FILLER_0_10_197
*423 FILLER_0_10_209
*424 FILLER_0_10_221
*425 FILLER_0_10_233
*426 FILLER_0_10_245
*427 FILLER_0_10_251
*428 FILLER_0_10_253
*429 FILLER_0_10_265
*430 FILLER_0_10_27
*431 FILLER_0_10_277
*432 FILLER_0_10_289
*433 FILLER_0_10_29
*434 FILLER_0_10_3
*435 FILLER_0_10_301
*436 FILLER_0_10_307
*437 FILLER_0_10_309
*438 FILLER_0_10_321
*439 FILLER_0_10_333
*440 FILLER_0_10_345
*441 FILLER_0_10_41
*442 FILLER_0_10_53
*443 FILLER_0_10_65
*444 FILLER_0_10_77
*445 FILLER_0_10_83
*446 FILLER_0_10_85
*447 FILLER_0_10_97
*448 FILLER_0_11_105
*449 FILLER_0_11_111
*450 FILLER_0_11_113
*451 FILLER_0_11_125
*452 FILLER_0_11_137
*453 FILLER_0_11_149
*454 FILLER_0_11_15
*455 FILLER_0_11_161
*456 FILLER_0_11_167
*457 FILLER_0_11_169
*458 FILLER_0_11_181
*459 FILLER_0_11_193
*460 FILLER_0_11_205
*461 FILLER_0_11_217
*462 FILLER_0_11_223
*463 FILLER_0_11_225
*464 FILLER_0_11_237
*465 FILLER_0_11_249
*466 FILLER_0_11_261
*467 FILLER_0_11_27
*468 FILLER_0_11_273
*469 FILLER_0_11_279
*470 FILLER_0_11_281
*471 FILLER_0_11_293
*472 FILLER_0_11_3
*473 FILLER_0_11_305
*474 FILLER_0_11_317
*475 FILLER_0_11_329
*476 FILLER_0_11_335
*477 FILLER_0_11_337
*478 FILLER_0_11_349
*479 FILLER_0_11_39
*480 FILLER_0_11_51
*481 FILLER_0_11_55
*482 FILLER_0_11_57
*483 FILLER_0_11_69
*484 FILLER_0_11_81
*485 FILLER_0_11_93
*486 FILLER_0_12_109
*487 FILLER_0_12_121
*488 FILLER_0_12_133
*489 FILLER_0_12_139
*490 FILLER_0_12_141
*491 FILLER_0_12_15
*492 FILLER_0_12_153
*493 FILLER_0_12_165
*494 FILLER_0_12_177
*495 FILLER_0_12_189
*496 FILLER_0_12_195
*497 FILLER_0_12_197
*498 FILLER_0_12_209
*499 FILLER_0_12_221
*500 FILLER_0_12_233
*501 FILLER_0_12_245
*502 FILLER_0_12_251
*503 FILLER_0_12_253
*504 FILLER_0_12_265
*505 FILLER_0_12_27
*506 FILLER_0_12_277
*507 FILLER_0_12_289
*508 FILLER_0_12_29
*509 FILLER_0_12_3
*510 FILLER_0_12_301
*511 FILLER_0_12_307
*512 FILLER_0_12_309
*513 FILLER_0_12_321
*514 FILLER_0_12_333
*515 FILLER_0_12_345
*516 FILLER_0_12_41
*517 FILLER_0_12_53
*518 FILLER_0_12_65
*519 FILLER_0_12_77
*520 FILLER_0_12_83
*521 FILLER_0_12_85
*522 FILLER_0_12_97
*523 FILLER_0_13_105
*524 FILLER_0_13_111
*525 FILLER_0_13_113
*526 FILLER_0_13_125
*527 FILLER_0_13_137
*528 FILLER_0_13_149
*529 FILLER_0_13_15
*530 FILLER_0_13_161
*531 FILLER_0_13_167
*532 FILLER_0_13_169
*533 FILLER_0_13_181
*534 FILLER_0_13_193
*535 FILLER_0_13_205
*536 FILLER_0_13_217
*537 FILLER_0_13_223
*538 FILLER_0_13_225
*539 FILLER_0_13_237
*540 FILLER_0_13_249
*541 FILLER_0_13_261
*542 FILLER_0_13_27
*543 FILLER_0_13_273
*544 FILLER_0_13_279
*545 FILLER_0_13_281
*546 FILLER_0_13_293
*547 FILLER_0_13_3
*548 FILLER_0_13_305
*549 FILLER_0_13_317
*550 FILLER_0_13_329
*551 FILLER_0_13_335
*552 FILLER_0_13_337
*553 FILLER_0_13_349
*554 FILLER_0_13_39
*555 FILLER_0_13_51
*556 FILLER_0_13_55
*557 FILLER_0_13_57
*558 FILLER_0_13_69
*559 FILLER_0_13_81
*560 FILLER_0_13_93
*561 FILLER_0_14_109
*562 FILLER_0_14_121
*563 FILLER_0_14_133
*564 FILLER_0_14_139
*565 FILLER_0_14_141
*566 FILLER_0_14_15
*567 FILLER_0_14_153
*568 FILLER_0_14_165
*569 FILLER_0_14_177
*570 FILLER_0_14_189
*571 FILLER_0_14_195
*572 FILLER_0_14_197
*573 FILLER_0_14_209
*574 FILLER_0_14_221
*575 FILLER_0_14_233
*576 FILLER_0_14_245
*577 FILLER_0_14_251
*578 FILLER_0_14_253
*579 FILLER_0_14_265
*580 FILLER_0_14_27
*581 FILLER_0_14_277
*582 FILLER_0_14_289
*583 FILLER_0_14_29
*584 FILLER_0_14_3
*585 FILLER_0_14_301
*586 FILLER_0_14_307
*587 FILLER_0_14_309
*588 FILLER_0_14_321
*589 FILLER_0_14_333
*590 FILLER_0_14_345
*591 FILLER_0_14_41
*592 FILLER_0_14_53
*593 FILLER_0_14_65
*594 FILLER_0_14_77
*595 FILLER_0_14_83
*596 FILLER_0_14_85
*597 FILLER_0_14_97
*598 FILLER_0_15_105
*599 FILLER_0_15_111
*600 FILLER_0_15_113
*601 FILLER_0_15_125
*602 FILLER_0_15_137
*603 FILLER_0_15_149
*604 FILLER_0_15_15
*605 FILLER_0_15_161
*606 FILLER_0_15_167
*607 FILLER_0_15_169
*608 FILLER_0_15_181
*609 FILLER_0_15_193
*610 FILLER_0_15_205
*611 FILLER_0_15_217
*612 FILLER_0_15_223
*613 FILLER_0_15_225
*614 FILLER_0_15_237
*615 FILLER_0_15_249
*616 FILLER_0_15_261
*617 FILLER_0_15_27
*618 FILLER_0_15_273
*619 FILLER_0_15_279
*620 FILLER_0_15_281
*621 FILLER_0_15_293
*622 FILLER_0_15_3
*623 FILLER_0_15_305
*624 FILLER_0_15_317
*625 FILLER_0_15_329
*626 FILLER_0_15_335
*627 FILLER_0_15_337
*628 FILLER_0_15_349
*629 FILLER_0_15_39
*630 FILLER_0_15_51
*631 FILLER_0_15_55
*632 FILLER_0_15_57
*633 FILLER_0_15_69
*634 FILLER_0_15_81
*635 FILLER_0_15_93
*636 FILLER_0_16_109
*637 FILLER_0_16_121
*638 FILLER_0_16_133
*639 FILLER_0_16_139
*640 FILLER_0_16_141
*641 FILLER_0_16_15
*642 FILLER_0_16_153
*643 FILLER_0_16_165
*644 FILLER_0_16_177
*645 FILLER_0_16_189
*646 FILLER_0_16_195
*647 FILLER_0_16_197
*648 FILLER_0_16_209
*649 FILLER_0_16_221
*650 FILLER_0_16_233
*651 FILLER_0_16_245
*652 FILLER_0_16_251
*653 FILLER_0_16_253
*654 FILLER_0_16_265
*655 FILLER_0_16_27
*656 FILLER_0_16_277
*657 FILLER_0_16_289
*658 FILLER_0_16_29
*659 FILLER_0_16_3
*660 FILLER_0_16_301
*661 FILLER_0_16_307
*662 FILLER_0_16_309
*663 FILLER_0_16_321
*664 FILLER_0_16_333
*665 FILLER_0_16_345
*666 FILLER_0_16_41
*667 FILLER_0_16_53
*668 FILLER_0_16_65
*669 FILLER_0_16_77
*670 FILLER_0_16_83
*671 FILLER_0_16_85
*672 FILLER_0_16_97
*673 FILLER_0_17_105
*674 FILLER_0_17_111
*675 FILLER_0_17_113
*676 FILLER_0_17_125
*677 FILLER_0_17_137
*678 FILLER_0_17_149
*679 FILLER_0_17_15
*680 FILLER_0_17_161
*681 FILLER_0_17_167
*682 FILLER_0_17_169
*683 FILLER_0_17_181
*684 FILLER_0_17_193
*685 FILLER_0_17_205
*686 FILLER_0_17_217
*687 FILLER_0_17_223
*688 FILLER_0_17_225
*689 FILLER_0_17_237
*690 FILLER_0_17_249
*691 FILLER_0_17_261
*692 FILLER_0_17_27
*693 FILLER_0_17_273
*694 FILLER_0_17_279
*695 FILLER_0_17_281
*696 FILLER_0_17_293
*697 FILLER_0_17_3
*698 FILLER_0_17_305
*699 FILLER_0_17_317
*700 FILLER_0_17_329
*701 FILLER_0_17_335
*702 FILLER_0_17_337
*703 FILLER_0_17_349
*704 FILLER_0_17_39
*705 FILLER_0_17_51
*706 FILLER_0_17_55
*707 FILLER_0_17_57
*708 FILLER_0_17_69
*709 FILLER_0_17_81
*710 FILLER_0_17_93
*711 FILLER_0_18_109
*712 FILLER_0_18_121
*713 FILLER_0_18_133
*714 FILLER_0_18_139
*715 FILLER_0_18_141
*716 FILLER_0_18_15
*717 FILLER_0_18_153
*718 FILLER_0_18_165
*719 FILLER_0_18_177
*720 FILLER_0_18_189
*721 FILLER_0_18_195
*722 FILLER_0_18_197
*723 FILLER_0_18_209
*724 FILLER_0_18_221
*725 FILLER_0_18_233
*726 FILLER_0_18_245
*727 FILLER_0_18_251
*728 FILLER_0_18_253
*729 FILLER_0_18_265
*730 FILLER_0_18_27
*731 FILLER_0_18_277
*732 FILLER_0_18_289
*733 FILLER_0_18_29
*734 FILLER_0_18_3
*735 FILLER_0_18_301
*736 FILLER_0_18_307
*737 FILLER_0_18_309
*738 FILLER_0_18_321
*739 FILLER_0_18_333
*740 FILLER_0_18_345
*741 FILLER_0_18_41
*742 FILLER_0_18_53
*743 FILLER_0_18_65
*744 FILLER_0_18_77
*745 FILLER_0_18_83
*746 FILLER_0_18_85
*747 FILLER_0_18_97
*748 FILLER_0_19_105
*749 FILLER_0_19_111
*750 FILLER_0_19_113
*751 FILLER_0_19_125
*752 FILLER_0_19_137
*753 FILLER_0_19_149
*754 FILLER_0_19_15
*755 FILLER_0_19_161
*756 FILLER_0_19_167
*757 FILLER_0_19_169
*758 FILLER_0_19_181
*759 FILLER_0_19_193
*760 FILLER_0_19_205
*761 FILLER_0_19_217
*762 FILLER_0_19_223
*763 FILLER_0_19_225
*764 FILLER_0_19_237
*765 FILLER_0_19_249
*766 FILLER_0_19_261
*767 FILLER_0_19_27
*768 FILLER_0_19_273
*769 FILLER_0_19_279
*770 FILLER_0_19_281
*771 FILLER_0_19_293
*772 FILLER_0_19_3
*773 FILLER_0_19_305
*774 FILLER_0_19_317
*775 FILLER_0_19_329
*776 FILLER_0_19_335
*777 FILLER_0_19_337
*778 FILLER_0_19_349
*779 FILLER_0_19_39
*780 FILLER_0_19_51
*781 FILLER_0_19_55
*782 FILLER_0_19_57
*783 FILLER_0_19_69
*784 FILLER_0_19_81
*785 FILLER_0_19_93
*786 FILLER_0_1_105
*787 FILLER_0_1_111
*788 FILLER_0_1_113
*789 FILLER_0_1_125
*790 FILLER_0_1_137
*791 FILLER_0_1_149
*792 FILLER_0_1_15
*793 FILLER_0_1_161
*794 FILLER_0_1_167
*795 FILLER_0_1_169
*796 FILLER_0_1_181
*797 FILLER_0_1_193
*798 FILLER_0_1_205
*799 FILLER_0_1_217
*800 FILLER_0_1_223
*801 FILLER_0_1_225
*802 FILLER_0_1_237
*803 FILLER_0_1_249
*804 FILLER_0_1_261
*805 FILLER_0_1_27
*806 FILLER_0_1_273
*807 FILLER_0_1_279
*808 FILLER_0_1_281
*809 FILLER_0_1_293
*810 FILLER_0_1_3
*811 FILLER_0_1_305
*812 FILLER_0_1_317
*813 FILLER_0_1_329
*814 FILLER_0_1_335
*815 FILLER_0_1_337
*816 FILLER_0_1_349
*817 FILLER_0_1_39
*818 FILLER_0_1_51
*819 FILLER_0_1_55
*820 FILLER_0_1_57
*821 FILLER_0_1_69
*822 FILLER_0_1_81
*823 FILLER_0_1_93
*824 FILLER_0_20_109
*825 FILLER_0_20_121
*826 FILLER_0_20_133
*827 FILLER_0_20_139
*828 FILLER_0_20_141
*829 FILLER_0_20_15
*830 FILLER_0_20_153
*831 FILLER_0_20_165
*832 FILLER_0_20_177
*833 FILLER_0_20_189
*834 FILLER_0_20_195
*835 FILLER_0_20_197
*836 FILLER_0_20_209
*837 FILLER_0_20_221
*838 FILLER_0_20_233
*839 FILLER_0_20_245
*840 FILLER_0_20_251
*841 FILLER_0_20_253
*842 FILLER_0_20_265
*843 FILLER_0_20_27
*844 FILLER_0_20_277
*845 FILLER_0_20_289
*846 FILLER_0_20_29
*847 FILLER_0_20_3
*848 FILLER_0_20_301
*849 FILLER_0_20_307
*850 FILLER_0_20_309
*851 FILLER_0_20_321
*852 FILLER_0_20_333
*853 FILLER_0_20_345
*854 FILLER_0_20_41
*855 FILLER_0_20_53
*856 FILLER_0_20_65
*857 FILLER_0_20_77
*858 FILLER_0_20_83
*859 FILLER_0_20_85
*860 FILLER_0_20_97
*861 FILLER_0_21_105
*862 FILLER_0_21_111
*863 FILLER_0_21_113
*864 FILLER_0_21_125
*865 FILLER_0_21_137
*866 FILLER_0_21_149
*867 FILLER_0_21_15
*868 FILLER_0_21_161
*869 FILLER_0_21_167
*870 FILLER_0_21_169
*871 FILLER_0_21_181
*872 FILLER_0_21_193
*873 FILLER_0_21_205
*874 FILLER_0_21_217
*875 FILLER_0_21_223
*876 FILLER_0_21_225
*877 FILLER_0_21_237
*878 FILLER_0_21_249
*879 FILLER_0_21_261
*880 FILLER_0_21_27
*881 FILLER_0_21_273
*882 FILLER_0_21_279
*883 FILLER_0_21_281
*884 FILLER_0_21_293
*885 FILLER_0_21_3
*886 FILLER_0_21_305
*887 FILLER_0_21_317
*888 FILLER_0_21_329
*889 FILLER_0_21_335
*890 FILLER_0_21_337
*891 FILLER_0_21_349
*892 FILLER_0_21_39
*893 FILLER_0_21_51
*894 FILLER_0_21_55
*895 FILLER_0_21_57
*896 FILLER_0_21_69
*897 FILLER_0_21_81
*898 FILLER_0_21_93
*899 FILLER_0_22_109
*900 FILLER_0_22_121
*901 FILLER_0_22_133
*902 FILLER_0_22_139
*903 FILLER_0_22_141
*904 FILLER_0_22_15
*905 FILLER_0_22_153
*906 FILLER_0_22_165
*907 FILLER_0_22_177
*908 FILLER_0_22_189
*909 FILLER_0_22_195
*910 FILLER_0_22_197
*911 FILLER_0_22_209
*912 FILLER_0_22_221
*913 FILLER_0_22_233
*914 FILLER_0_22_245
*915 FILLER_0_22_251
*916 FILLER_0_22_253
*917 FILLER_0_22_265
*918 FILLER_0_22_27
*919 FILLER_0_22_277
*920 FILLER_0_22_289
*921 FILLER_0_22_29
*922 FILLER_0_22_3
*923 FILLER_0_22_301
*924 FILLER_0_22_307
*925 FILLER_0_22_309
*926 FILLER_0_22_321
*927 FILLER_0_22_333
*928 FILLER_0_22_345
*929 FILLER_0_22_41
*930 FILLER_0_22_53
*931 FILLER_0_22_65
*932 FILLER_0_22_77
*933 FILLER_0_22_83
*934 FILLER_0_22_85
*935 FILLER_0_22_97
*936 FILLER_0_23_105
*937 FILLER_0_23_111
*938 FILLER_0_23_113
*939 FILLER_0_23_125
*940 FILLER_0_23_137
*941 FILLER_0_23_149
*942 FILLER_0_23_15
*943 FILLER_0_23_161
*944 FILLER_0_23_167
*945 FILLER_0_23_169
*946 FILLER_0_23_181
*947 FILLER_0_23_193
*948 FILLER_0_23_205
*949 FILLER_0_23_217
*950 FILLER_0_23_223
*951 FILLER_0_23_225
*952 FILLER_0_23_237
*953 FILLER_0_23_249
*954 FILLER_0_23_261
*955 FILLER_0_23_27
*956 FILLER_0_23_273
*957 FILLER_0_23_279
*958 FILLER_0_23_281
*959 FILLER_0_23_293
*960 FILLER_0_23_3
*961 FILLER_0_23_305
*962 FILLER_0_23_317
*963 FILLER_0_23_329
*964 FILLER_0_23_335
*965 FILLER_0_23_337
*966 FILLER_0_23_349
*967 FILLER_0_23_39
*968 FILLER_0_23_51
*969 FILLER_0_23_55
*970 FILLER_0_23_57
*971 FILLER_0_23_69
*972 FILLER_0_23_81
*973 FILLER_0_23_93
*974 FILLER_0_24_105
*975 FILLER_0_24_117
*976 FILLER_0_24_129
*977 FILLER_0_24_137
*978 FILLER_0_24_141
*979 FILLER_0_24_15
*980 FILLER_0_24_153
*981 FILLER_0_24_165
*982 FILLER_0_24_177
*983 FILLER_0_24_189
*984 FILLER_0_24_195
*985 FILLER_0_24_197
*986 FILLER_0_24_209
*987 FILLER_0_24_221
*988 FILLER_0_24_233
*989 FILLER_0_24_245
*990 FILLER_0_24_251
*991 FILLER_0_24_253
*992 FILLER_0_24_265
*993 FILLER_0_24_27
*994 FILLER_0_24_277
*995 FILLER_0_24_289
*996 FILLER_0_24_29
*997 FILLER_0_24_3
*998 FILLER_0_24_301
*999 FILLER_0_24_307
*1000 FILLER_0_24_309
*1001 FILLER_0_24_321
*1002 FILLER_0_24_333
*1003 FILLER_0_24_345
*1004 FILLER_0_24_41
*1005 FILLER_0_24_53
*1006 FILLER_0_24_65
*1007 FILLER_0_24_77
*1008 FILLER_0_24_83
*1009 FILLER_0_25_105
*1010 FILLER_0_25_111
*1011 FILLER_0_25_113
*1012 FILLER_0_25_121
*1013 FILLER_0_25_139
*1014 FILLER_0_25_147
*1015 FILLER_0_25_15
*1016 FILLER_0_25_164
*1017 FILLER_0_25_169
*1018 FILLER_0_25_181
*1019 FILLER_0_25_185
*1020 FILLER_0_25_205
*1021 FILLER_0_25_217
*1022 FILLER_0_25_223
*1023 FILLER_0_25_225
*1024 FILLER_0_25_237
*1025 FILLER_0_25_249
*1026 FILLER_0_25_261
*1027 FILLER_0_25_27
*1028 FILLER_0_25_273
*1029 FILLER_0_25_279
*1030 FILLER_0_25_281
*1031 FILLER_0_25_293
*1032 FILLER_0_25_3
*1033 FILLER_0_25_305
*1034 FILLER_0_25_329
*1035 FILLER_0_25_335
*1036 FILLER_0_25_337
*1037 FILLER_0_25_349
*1038 FILLER_0_25_39
*1039 FILLER_0_25_51
*1040 FILLER_0_25_55
*1041 FILLER_0_25_57
*1042 FILLER_0_25_69
*1043 FILLER_0_25_81
*1044 FILLER_0_25_93
*1045 FILLER_0_26_117
*1046 FILLER_0_26_133
*1047 FILLER_0_26_139
*1048 FILLER_0_26_15
*1049 FILLER_0_26_154
*1050 FILLER_0_26_162
*1051 FILLER_0_26_182
*1052 FILLER_0_26_190
*1053 FILLER_0_26_195
*1054 FILLER_0_26_202
*1055 FILLER_0_26_214
*1056 FILLER_0_26_226
*1057 FILLER_0_26_246
*1058 FILLER_0_26_269
*1059 FILLER_0_26_27
*1060 FILLER_0_26_274
*1061 FILLER_0_26_29
*1062 FILLER_0_26_3
*1063 FILLER_0_26_306
*1064 FILLER_0_26_317
*1065 FILLER_0_26_329
*1066 FILLER_0_26_341
*1067 FILLER_0_26_349
*1068 FILLER_0_26_41
*1069 FILLER_0_26_53
*1070 FILLER_0_26_61
*1071 FILLER_0_26_79
*1072 FILLER_0_26_83
*1073 FILLER_0_27_105
*1074 FILLER_0_27_111
*1075 FILLER_0_27_113
*1076 FILLER_0_27_124
*1077 FILLER_0_27_141
*1078 FILLER_0_27_149
*1079 FILLER_0_27_15
*1080 FILLER_0_27_156
*1081 FILLER_0_27_169
*1082 FILLER_0_27_179
*1083 FILLER_0_27_191
*1084 FILLER_0_27_203
*1085 FILLER_0_27_225
*1086 FILLER_0_27_234
*1087 FILLER_0_27_246
*1088 FILLER_0_27_257
*1089 FILLER_0_27_263
*1090 FILLER_0_27_281
*1091 FILLER_0_27_295
*1092 FILLER_0_27_3
*1093 FILLER_0_27_30
*1094 FILLER_0_27_307
*1095 FILLER_0_27_329
*1096 FILLER_0_27_335
*1097 FILLER_0_27_337
*1098 FILLER_0_27_349
*1099 FILLER_0_27_55
*1100 FILLER_0_27_68
*1101 FILLER_0_27_89
*1102 FILLER_0_27_96
*1103 FILLER_0_28_103
*1104 FILLER_0_28_116
*1105 FILLER_0_28_124
*1106 FILLER_0_28_134
*1107 FILLER_0_28_141
*1108 FILLER_0_28_15
*1109 FILLER_0_28_158
*1110 FILLER_0_28_165
*1111 FILLER_0_28_171
*1112 FILLER_0_28_200
*1113 FILLER_0_28_209
*1114 FILLER_0_28_21
*1115 FILLER_0_28_223
*1116 FILLER_0_28_242
*1117 FILLER_0_28_250
*1118 FILLER_0_28_267
*1119 FILLER_0_28_27
*1120 FILLER_0_28_282
*1121 FILLER_0_28_288
*1122 FILLER_0_28_3
*1123 FILLER_0_28_302
*1124 FILLER_0_28_309
*1125 FILLER_0_28_321
*1126 FILLER_0_28_333
*1127 FILLER_0_28_345
*1128 FILLER_0_28_37
*1129 FILLER_0_28_44
*1130 FILLER_0_28_56
*1131 FILLER_0_28_77
*1132 FILLER_0_28_83
*1133 FILLER_0_28_85
*1134 FILLER_0_29_103
*1135 FILLER_0_29_111
*1136 FILLER_0_29_121
*1137 FILLER_0_29_138
*1138 FILLER_0_29_142
*1139 FILLER_0_29_159
*1140 FILLER_0_29_174
*1141 FILLER_0_29_184
*1142 FILLER_0_29_209
*1143 FILLER_0_29_221
*1144 FILLER_0_29_229
*1145 FILLER_0_29_251
*1146 FILLER_0_29_256
*1147 FILLER_0_29_268
*1148 FILLER_0_29_273
*1149 FILLER_0_29_278
*1150 FILLER_0_29_28
*1151 FILLER_0_29_287
*1152 FILLER_0_29_299
*1153 FILLER_0_29_335
*1154 FILLER_0_29_337
*1155 FILLER_0_29_349
*1156 FILLER_0_29_36
*1157 FILLER_0_29_49
*1158 FILLER_0_29_55
*1159 FILLER_0_2_109
*1160 FILLER_0_2_121
*1161 FILLER_0_2_133
*1162 FILLER_0_2_139
*1163 FILLER_0_2_141
*1164 FILLER_0_2_15
*1165 FILLER_0_2_153
*1166 FILLER_0_2_165
*1167 FILLER_0_2_177
*1168 FILLER_0_2_189
*1169 FILLER_0_2_195
*1170 FILLER_0_2_197
*1171 FILLER_0_2_209
*1172 FILLER_0_2_221
*1173 FILLER_0_2_233
*1174 FILLER_0_2_245
*1175 FILLER_0_2_251
*1176 FILLER_0_2_253
*1177 FILLER_0_2_265
*1178 FILLER_0_2_27
*1179 FILLER_0_2_277
*1180 FILLER_0_2_289
*1181 FILLER_0_2_29
*1182 FILLER_0_2_3
*1183 FILLER_0_2_301
*1184 FILLER_0_2_307
*1185 FILLER_0_2_309
*1186 FILLER_0_2_321
*1187 FILLER_0_2_333
*1188 FILLER_0_2_345
*1189 FILLER_0_2_41
*1190 FILLER_0_2_53
*1191 FILLER_0_2_65
*1192 FILLER_0_2_77
*1193 FILLER_0_2_83
*1194 FILLER_0_2_85
*1195 FILLER_0_2_97
*1196 FILLER_0_30_105
*1197 FILLER_0_30_122
*1198 FILLER_0_30_134
*1199 FILLER_0_30_141
*1200 FILLER_0_30_15
*1201 FILLER_0_30_153
*1202 FILLER_0_30_176
*1203 FILLER_0_30_180
*1204 FILLER_0_30_192
*1205 FILLER_0_30_197
*1206 FILLER_0_30_210
*1207 FILLER_0_30_242
*1208 FILLER_0_30_268
*1209 FILLER_0_30_27
*1210 FILLER_0_30_274
*1211 FILLER_0_30_280
*1212 FILLER_0_30_289
*1213 FILLER_0_30_3
*1214 FILLER_0_30_302
*1215 FILLER_0_30_314
*1216 FILLER_0_30_318
*1217 FILLER_0_30_322
*1218 FILLER_0_30_34
*1219 FILLER_0_30_345
*1220 FILLER_0_30_50
*1221 FILLER_0_30_68
*1222 FILLER_0_30_80
*1223 FILLER_0_30_85
*1224 FILLER_0_30_97
*1225 FILLER_0_31_106
*1226 FILLER_0_31_116
*1227 FILLER_0_31_126
*1228 FILLER_0_31_134
*1229 FILLER_0_31_141
*1230 FILLER_0_31_151
*1231 FILLER_0_31_165
*1232 FILLER_0_31_173
*1233 FILLER_0_31_193
*1234 FILLER_0_31_221
*1235 FILLER_0_31_225
*1236 FILLER_0_31_242
*1237 FILLER_0_31_254
*1238 FILLER_0_31_262
*1239 FILLER_0_31_267
*1240 FILLER_0_31_271
*1241 FILLER_0_31_28
*1242 FILLER_0_31_281
*1243 FILLER_0_31_293
*1244 FILLER_0_31_3
*1245 FILLER_0_31_305
*1246 FILLER_0_31_319
*1247 FILLER_0_31_32
*1248 FILLER_0_31_337
*1249 FILLER_0_31_349
*1250 FILLER_0_31_39
*1251 FILLER_0_31_51
*1252 FILLER_0_31_55
*1253 FILLER_0_31_57
*1254 FILLER_0_31_64
*1255 FILLER_0_31_71
*1256 FILLER_0_32_11
*1257 FILLER_0_32_125
*1258 FILLER_0_32_166
*1259 FILLER_0_32_187
*1260 FILLER_0_32_193
*1261 FILLER_0_32_197
*1262 FILLER_0_32_209
*1263 FILLER_0_32_22
*1264 FILLER_0_32_221
*1265 FILLER_0_32_233
*1266 FILLER_0_32_237
*1267 FILLER_0_32_247
*1268 FILLER_0_32_253
*1269 FILLER_0_32_269
*1270 FILLER_0_32_287
*1271 FILLER_0_32_29
*1272 FILLER_0_32_294
*1273 FILLER_0_32_298
*1274 FILLER_0_32_3
*1275 FILLER_0_32_302
*1276 FILLER_0_32_317
*1277 FILLER_0_32_329
*1278 FILLER_0_32_341
*1279 FILLER_0_32_349
*1280 FILLER_0_32_42
*1281 FILLER_0_32_58
*1282 FILLER_0_32_69
*1283 FILLER_0_32_75
*1284 FILLER_0_32_83
*1285 FILLER_0_32_85
*1286 FILLER_0_32_93
*1287 FILLER_0_33_106
*1288 FILLER_0_33_113
*1289 FILLER_0_33_117
*1290 FILLER_0_33_141
*1291 FILLER_0_33_153
*1292 FILLER_0_33_162
*1293 FILLER_0_33_169
*1294 FILLER_0_33_189
*1295 FILLER_0_33_199
*1296 FILLER_0_33_207
*1297 FILLER_0_33_230
*1298 FILLER_0_33_234
*1299 FILLER_0_33_251
*1300 FILLER_0_33_261
*1301 FILLER_0_33_269
*1302 FILLER_0_33_273
*1303 FILLER_0_33_28
*1304 FILLER_0_33_288
*1305 FILLER_0_33_298
*1306 FILLER_0_33_3
*1307 FILLER_0_33_306
*1308 FILLER_0_33_314
*1309 FILLER_0_33_326
*1310 FILLER_0_33_334
*1311 FILLER_0_33_337
*1312 FILLER_0_33_349
*1313 FILLER_0_33_36
*1314 FILLER_0_33_46
*1315 FILLER_0_33_54
*1316 FILLER_0_33_66
*1317 FILLER_0_33_74
*1318 FILLER_0_33_94
*1319 FILLER_0_34_11
*1320 FILLER_0_34_118
*1321 FILLER_0_34_141
*1322 FILLER_0_34_172
*1323 FILLER_0_34_180
*1324 FILLER_0_34_194
*1325 FILLER_0_34_197
*1326 FILLER_0_34_206
*1327 FILLER_0_34_218
*1328 FILLER_0_34_23
*1329 FILLER_0_34_251
*1330 FILLER_0_34_259
*1331 FILLER_0_34_27
*1332 FILLER_0_34_271
*1333 FILLER_0_34_278
*1334 FILLER_0_34_283
*1335 FILLER_0_34_29
*1336 FILLER_0_34_291
*1337 FILLER_0_34_299
*1338 FILLER_0_34_3
*1339 FILLER_0_34_306
*1340 FILLER_0_34_325
*1341 FILLER_0_34_337
*1342 FILLER_0_34_349
*1343 FILLER_0_34_41
*1344 FILLER_0_34_64
*1345 FILLER_0_34_75
*1346 FILLER_0_34_83
*1347 FILLER_0_34_94
*1348 FILLER_0_35_104
*1349 FILLER_0_35_108
*1350 FILLER_0_35_11
*1351 FILLER_0_35_122
*1352 FILLER_0_35_133
*1353 FILLER_0_35_151
*1354 FILLER_0_35_163
*1355 FILLER_0_35_167
*1356 FILLER_0_35_169
*1357 FILLER_0_35_178
*1358 FILLER_0_35_184
*1359 FILLER_0_35_193
*1360 FILLER_0_35_217
*1361 FILLER_0_35_223
*1362 FILLER_0_35_244
*1363 FILLER_0_35_270
*1364 FILLER_0_35_281
*1365 FILLER_0_35_299
*1366 FILLER_0_35_3
*1367 FILLER_0_35_310
*1368 FILLER_0_35_316
*1369 FILLER_0_35_325
*1370 FILLER_0_35_333
*1371 FILLER_0_35_337
*1372 FILLER_0_35_349
*1373 FILLER_0_35_54
*1374 FILLER_0_35_57
*1375 FILLER_0_35_65
*1376 FILLER_0_35_89
*1377 FILLER_0_36_120
*1378 FILLER_0_36_126
*1379 FILLER_0_36_136
*1380 FILLER_0_36_141
*1381 FILLER_0_36_15
*1382 FILLER_0_36_154
*1383 FILLER_0_36_160
*1384 FILLER_0_36_172
*1385 FILLER_0_36_194
*1386 FILLER_0_36_210
*1387 FILLER_0_36_219
*1388 FILLER_0_36_230
*1389 FILLER_0_36_234
*1390 FILLER_0_36_244
*1391 FILLER_0_36_253
*1392 FILLER_0_36_257
*1393 FILLER_0_36_268
*1394 FILLER_0_36_27
*1395 FILLER_0_36_280
*1396 FILLER_0_36_288
*1397 FILLER_0_36_29
*1398 FILLER_0_36_3
*1399 FILLER_0_36_309
*1400 FILLER_0_36_327
*1401 FILLER_0_36_339
*1402 FILLER_0_36_41
*1403 FILLER_0_36_47
*1404 FILLER_0_36_72
*1405 FILLER_0_36_83
*1406 FILLER_0_36_85
*1407 FILLER_0_36_97
*1408 FILLER_0_37_107
*1409 FILLER_0_37_111
*1410 FILLER_0_37_113
*1411 FILLER_0_37_128
*1412 FILLER_0_37_140
*1413 FILLER_0_37_15
*1414 FILLER_0_37_166
*1415 FILLER_0_37_204
*1416 FILLER_0_37_208
*1417 FILLER_0_37_223
*1418 FILLER_0_37_257
*1419 FILLER_0_37_27
*1420 FILLER_0_37_281
*1421 FILLER_0_37_297
*1422 FILLER_0_37_3
*1423 FILLER_0_37_323
*1424 FILLER_0_37_335
*1425 FILLER_0_37_337
*1426 FILLER_0_37_349
*1427 FILLER_0_37_35
*1428 FILLER_0_37_50
*1429 FILLER_0_37_57
*1430 FILLER_0_37_75
*1431 FILLER_0_37_95
*1432 FILLER_0_38_104
*1433 FILLER_0_38_109
*1434 FILLER_0_38_113
*1435 FILLER_0_38_141
*1436 FILLER_0_38_147
*1437 FILLER_0_38_15
*1438 FILLER_0_38_167
*1439 FILLER_0_38_169
*1440 FILLER_0_38_194
*1441 FILLER_0_38_197
*1442 FILLER_0_38_212
*1443 FILLER_0_38_218
*1444 FILLER_0_38_225
*1445 FILLER_0_38_230
*1446 FILLER_0_38_234
*1447 FILLER_0_38_256
*1448 FILLER_0_38_264
*1449 FILLER_0_38_268
*1450 FILLER_0_38_27
*1451 FILLER_0_38_29
*1452 FILLER_0_38_297
*1453 FILLER_0_38_3
*1454 FILLER_0_38_309
*1455 FILLER_0_38_321
*1456 FILLER_0_38_333
*1457 FILLER_0_38_337
*1458 FILLER_0_38_349
*1459 FILLER_0_38_51
*1460 FILLER_0_38_55
*1461 FILLER_0_38_69
*1462 FILLER_0_38_76
*1463 FILLER_0_38_83
*1464 FILLER_0_38_85
*1465 FILLER_0_38_91
*1466 FILLER_0_38_98
*1467 FILLER_0_3_105
*1468 FILLER_0_3_111
*1469 FILLER_0_3_113
*1470 FILLER_0_3_125
*1471 FILLER_0_3_137
*1472 FILLER_0_3_149
*1473 FILLER_0_3_15
*1474 FILLER_0_3_161
*1475 FILLER_0_3_167
*1476 FILLER_0_3_169
*1477 FILLER_0_3_181
*1478 FILLER_0_3_193
*1479 FILLER_0_3_205
*1480 FILLER_0_3_217
*1481 FILLER_0_3_223
*1482 FILLER_0_3_225
*1483 FILLER_0_3_237
*1484 FILLER_0_3_249
*1485 FILLER_0_3_261
*1486 FILLER_0_3_27
*1487 FILLER_0_3_273
*1488 FILLER_0_3_279
*1489 FILLER_0_3_281
*1490 FILLER_0_3_293
*1491 FILLER_0_3_3
*1492 FILLER_0_3_305
*1493 FILLER_0_3_317
*1494 FILLER_0_3_329
*1495 FILLER_0_3_335
*1496 FILLER_0_3_337
*1497 FILLER_0_3_349
*1498 FILLER_0_3_39
*1499 FILLER_0_3_51
*1500 FILLER_0_3_55
*1501 FILLER_0_3_57
*1502 FILLER_0_3_69
*1503 FILLER_0_3_81