*SPEF "ieee 1481-1999"
*DESIGN "tt_um_frequency_counter"
*DATE "11:11:11 Fri 11 11, 1111"
*VENDOR "OpenRCX"
*PROGRAM "Parallel Extraction"
*VERSION "1.0"
*DESIGN_FLOW "NAME_SCOPE LOCAL" "PIN_CAP NONE"
*DIVIDER /
*DELIMITER :
*BUS_DELIMITER []
*T_UNIT 1 NS
*C_UNIT 1 PF
*R_UNIT 1 OHM
*L_UNIT 1 HENRY

*NAME_MAP
*3 clk
*4 ena
*5 rst_n
*6 ui_in[0]
*7 ui_in[1]
*8 ui_in[2]
*9 ui_in[3]
*10 ui_in[4]
*11 ui_in[5]
*12 ui_in[6]
*13 ui_in[7]
*14 uio_in[0]
*15 uio_in[1]
*16 uio_in[2]
*17 uio_in[3]
*18 uio_in[4]
*19 uio_in[5]
*20 uio_in[6]
*21 uio_in[7]
*22 uio_oe[0]
*23 uio_oe[1]
*24 uio_oe[2]
*25 uio_oe[3]
*26 uio_oe[4]
*27 uio_oe[5]
*28 uio_oe[6]
*29 uio_oe[7]
*30 uio_out[0]
*31 uio_out[1]
*32 uio_out[2]
*33 uio_out[3]
*34 uio_out[4]
*35 uio_out[5]
*36 uio_out[6]
*37 uio_out[7]
*38 uo_out[0]
*39 uo_out[1]
*40 uo_out[2]
*41 uo_out[3]
*42 uo_out[4]
*43 uo_out[5]
*44 uo_out[6]
*45 uo_out[7]
*46 _000_
*47 _001_
*48 _002_
*49 _003_
*50 _004_
*51 _005_
*52 _006_
*53 _007_
*54 _008_
*55 _009_
*56 _010_
*57 _011_
*58 _012_
*59 _013_
*60 _014_
*61 _015_
*62 _016_
*63 _017_
*64 _018_
*65 _019_
*66 _020_
*67 _021_
*68 _022_
*69 _023_
*70 _024_
*71 _025_
*72 _026_
*73 _027_
*74 _028_
*75 _029_
*76 _030_
*77 _031_
*78 _032_
*79 _033_
*80 _034_
*81 _035_
*82 _036_
*83 _037_
*84 _038_
*85 _039_
*86 _040_
*87 _041_
*88 _042_
*89 _043_
*90 _044_
*91 _045_
*92 _046_
*93 _047_
*94 _048_
*95 _049_
*96 _050_
*97 _051_
*98 _052_
*99 _053_
*100 _054_
*101 _055_
*102 _056_
*103 _057_
*104 _058_
*105 _059_
*106 _060_
*107 _061_
*108 _062_
*109 _063_
*110 _064_
*111 _065_
*112 _066_
*113 _067_
*114 _068_
*115 _069_
*116 _070_
*117 _071_
*118 _072_
*119 _073_
*120 _074_
*121 _075_
*122 _076_
*123 _077_
*124 _078_
*125 _079_
*126 _080_
*127 _081_
*128 _082_
*129 _083_
*130 _084_
*131 _085_
*132 _086_
*133 _087_
*134 _088_
*135 _089_
*136 _090_
*137 _091_
*138 _092_
*139 _093_
*140 _094_
*141 _095_
*142 _096_
*143 _097_
*144 _098_
*145 _099_
*146 _100_
*147 _101_
*148 _102_
*149 _103_
*150 _104_
*151 _105_
*152 _106_
*153 _107_
*154 _108_
*155 _109_
*156 _110_
*157 _111_
*158 _112_
*159 _113_
*160 _114_
*161 _115_
*162 _116_
*163 _117_
*164 _118_
*165 _119_
*166 _120_
*167 _121_
*168 _122_
*169 _123_
*170 _124_
*171 _125_
*172 _126_
*173 _127_
*174 _128_
*175 _129_
*176 _130_
*177 _131_
*178 _132_
*179 _133_
*180 _134_
*181 _135_
*182 _136_
*183 _137_
*184 _138_
*185 _139_
*186 _140_
*187 _141_
*188 _142_
*189 _143_
*190 _144_
*191 _145_
*192 _146_
*193 _147_
*194 _148_
*195 _149_
*196 _150_
*197 _151_
*198 _152_
*199 _153_
*200 _154_
*201 _155_
*202 _156_
*203 _157_
*204 _158_
*205 _159_
*206 _160_
*207 _161_
*208 _162_
*209 _163_
*210 _164_
*211 _165_
*212 _166_
*213 _167_
*214 _168_
*215 _169_
*216 _170_
*217 _171_
*218 _172_
*219 _173_
*220 _174_
*221 _175_
*222 _176_
*223 _177_
*224 _178_
*225 _179_
*226 _180_
*227 _181_
*228 _182_
*229 _183_
*230 _184_
*231 _185_
*232 _186_
*233 _187_
*234 _188_
*235 _189_
*236 _190_
*237 _191_
*238 _192_
*239 _193_
*240 _194_
*241 _195_
*242 _196_
*243 _197_
*244 _198_
*245 _199_
*246 _200_
*247 _201_
*248 _202_
*249 _203_
*250 _204_
*251 _205_
*252 _206_
*253 _207_
*254 _208_
*255 _209_
*256 _210_
*257 _211_
*258 _212_
*259 _213_
*260 _214_
*261 _215_
*262 _216_
*263 _217_
*264 _218_
*265 _219_
*266 _220_
*267 _221_
*268 _222_
*269 _223_
*270 _224_
*271 _225_
*272 _226_
*273 _227_
*274 _228_
*275 _229_
*276 _230_
*277 _231_
*278 _232_
*279 _233_
*280 _234_
*281 _235_
*282 _236_
*283 _237_
*284 _238_
*285 _239_
*286 _240_
*287 _241_
*288 _242_
*289 _243_
*290 _244_
*291 _245_
*292 _246_
*293 _247_
*294 _248_
*295 _249_
*296 _250_
*297 _251_
*298 _252_
*299 _253_
*300 _254_
*301 _255_
*302 _256_
*303 _257_
*304 _258_
*305 _259_
*306 _260_
*307 _261_
*308 _262_
*309 _263_
*310 _264_
*311 clknet_0_clk
*312 clknet_2_0__leaf_clk
*313 clknet_2_1__leaf_clk
*314 clknet_2_2__leaf_clk
*315 clknet_2_3__leaf_clk
*316 frequency_counter\.clk_counter\[0\]
*317 frequency_counter\.clk_counter\[10\]
*318 frequency_counter\.clk_counter\[11\]
*319 frequency_counter\.clk_counter\[1\]
*320 frequency_counter\.clk_counter\[2\]
*321 frequency_counter\.clk_counter\[3\]
*322 frequency_counter\.clk_counter\[4\]
*323 frequency_counter\.clk_counter\[5\]
*324 frequency_counter\.clk_counter\[6\]
*325 frequency_counter\.clk_counter\[7\]
*326 frequency_counter\.clk_counter\[8\]
*327 frequency_counter\.clk_counter\[9\]
*328 frequency_counter\.digit
*329 frequency_counter\.edge_counter\[0\]
*330 frequency_counter\.edge_counter\[1\]
*331 frequency_counter\.edge_counter\[2\]
*332 frequency_counter\.edge_counter\[3\]
*333 frequency_counter\.edge_counter\[4\]
*334 frequency_counter\.edge_counter\[5\]
*335 frequency_counter\.edge_counter\[6\]
*336 frequency_counter\.edge_detect0\.q0
*337 frequency_counter\.edge_detect0\.q1
*338 frequency_counter\.edge_detect0\.q2
*339 frequency_counter\.seven_segment0\.load
*340 frequency_counter\.seven_segment0\.ten_count\[0\]
*341 frequency_counter\.seven_segment0\.ten_count\[1\]
*342 frequency_counter\.seven_segment0\.ten_count\[2\]
*343 frequency_counter\.seven_segment0\.ten_count\[3\]
*344 frequency_counter\.seven_segment0\.ten_count_reg\[0\]
*345 frequency_counter\.seven_segment0\.ten_count_reg\[1\]
*346 frequency_counter\.seven_segment0\.ten_count_reg\[2\]
*347 frequency_counter\.seven_segment0\.ten_count_reg\[3\]
*348 frequency_counter\.seven_segment0\.unit_count\[0\]
*349 frequency_counter\.seven_segment0\.unit_count\[1\]
*350 frequency_counter\.seven_segment0\.unit_count\[2\]
*351 frequency_counter\.seven_segment0\.unit_count\[3\]
*352 frequency_counter\.seven_segment0\.unit_count_reg\[0\]
*353 frequency_counter\.seven_segment0\.unit_count_reg\[1\]
*354 frequency_counter\.seven_segment0\.unit_count_reg\[2\]
*355 frequency_counter\.seven_segment0\.unit_count_reg\[3\]
*356 frequency_counter\.update_period\[0\]
*357 frequency_counter\.update_period\[10\]
*358 frequency_counter\.update_period\[11\]
*359 frequency_counter\.update_period\[1\]
*360 frequency_counter\.update_period\[2\]
*361 frequency_counter\.update_period\[3\]
*362 frequency_counter\.update_period\[4\]
*363 frequency_counter\.update_period\[5\]
*364 frequency_counter\.update_period\[6\]
*365 frequency_counter\.update_period\[7\]
*366 frequency_counter\.update_period\[8\]
*367 frequency_counter\.update_period\[9\]
*368 net1
*369 net10
*370 net11
*371 net12
*372 net13
*373 net14
*374 net15
*375 net16
*376 net17
*377 net18
*378 net19
*379 net2
*380 net20
*381 net21
*382 net22
*383 net23
*384 net24
*385 net25
*386 net26
*387 net27
*388 net28
*389 net29
*390 net3
*391 net30
*392 net31
*393 net32
*394 net33
*395 net34
*396 net35
*397 net36
*398 net37
*399 net4
*400 net5
*401 net6
*402 net7
*403 net8
*404 net9
*405 FILLER_0_0_109
*406 FILLER_0_0_113
*407 FILLER_0_0_125
*408 FILLER_0_0_137
*409 FILLER_0_0_141
*410 FILLER_0_0_15
*411 FILLER_0_0_153
*412 FILLER_0_0_165
*413 FILLER_0_0_169
*414 FILLER_0_0_181
*415 FILLER_0_0_193
*416 FILLER_0_0_197
*417 FILLER_0_0_209
*418 FILLER_0_0_221
*419 FILLER_0_0_225
*420 FILLER_0_0_237
*421 FILLER_0_0_249
*422 FILLER_0_0_253
*423 FILLER_0_0_265
*424 FILLER_0_0_27
*425 FILLER_0_0_277
*426 FILLER_0_0_281
*427 FILLER_0_0_29
*428 FILLER_0_0_293
*429 FILLER_0_0_3
*430 FILLER_0_0_305
*431 FILLER_0_0_309
*432 FILLER_0_0_321
*433 FILLER_0_0_333
*434 FILLER_0_0_337
*435 FILLER_0_0_349
*436 FILLER_0_0_41
*437 FILLER_0_0_53
*438 FILLER_0_0_57
*439 FILLER_0_0_69
*440 FILLER_0_0_81
*441 FILLER_0_0_85
*442 FILLER_0_0_97
*443 FILLER_0_10_109
*444 FILLER_0_10_121
*445 FILLER_0_10_133
*446 FILLER_0_10_139
*447 FILLER_0_10_141
*448 FILLER_0_10_15
*449 FILLER_0_10_153
*450 FILLER_0_10_165
*451 FILLER_0_10_177
*452 FILLER_0_10_189
*453 FILLER_0_10_195
*454 FILLER_0_10_197
*455 FILLER_0_10_209
*456 FILLER_0_10_221
*457 FILLER_0_10_233
*458 FILLER_0_10_245
*459 FILLER_0_10_251
*460 FILLER_0_10_253
*461 FILLER_0_10_265
*462 FILLER_0_10_27
*463 FILLER_0_10_277
*464 FILLER_0_10_289
*465 FILLER_0_10_29
*466 FILLER_0_10_3
*467 FILLER_0_10_301
*468 FILLER_0_10_307
*469 FILLER_0_10_309
*470 FILLER_0_10_321
*471 FILLER_0_10_333
*472 FILLER_0_10_345
*473 FILLER_0_10_41
*474 FILLER_0_10_53
*475 FILLER_0_10_65
*476 FILLER_0_10_77
*477 FILLER_0_10_83
*478 FILLER_0_10_85
*479 FILLER_0_10_97
*480 FILLER_0_11_105
*481 FILLER_0_11_111
*482 FILLER_0_11_113
*483 FILLER_0_11_125
*484 FILLER_0_11_137
*485 FILLER_0_11_149
*486 FILLER_0_11_15
*487 FILLER_0_11_161
*488 FILLER_0_11_167
*489 FILLER_0_11_169
*490 FILLER_0_11_181
*491 FILLER_0_11_193
*492 FILLER_0_11_205
*493 FILLER_0_11_217
*494 FILLER_0_11_223
*495 FILLER_0_11_225
*496 FILLER_0_11_237
*497 FILLER_0_11_249
*498 FILLER_0_11_261
*499 FILLER_0_11_27
*500 FILLER_0_11_273
*501 FILLER_0_11_279
*502 FILLER_0_11_281
*503 FILLER_0_11_293
*504 FILLER_0_11_3
*505 FILLER_0_11_305
*506 FILLER_0_11_317
*507 FILLER_0_11_329
*508 FILLER_0_11_335
*509 FILLER_0_11_337
*510 FILLER_0_11_349
*511 FILLER_0_11_39
*512 FILLER_0_11_51
*513 FILLER_0_11_55
*514 FILLER_0_11_57
*515 FILLER_0_11_69
*516 FILLER_0_11_81
*517 FILLER_0_11_93
*518 FILLER_0_12_109
*519 FILLER_0_12_121
*520 FILLER_0_12_133
*521 FILLER_0_12_139
*522 FILLER_0_12_141
*523 FILLER_0_12_15
*524 FILLER_0_12_153
*525 FILLER_0_12_165
*526 FILLER_0_12_177
*527 FILLER_0_12_189
*528 FILLER_0_12_195
*529 FILLER_0_12_197
*530 FILLER_0_12_209
*531 FILLER_0_12_221
*532 FILLER_0_12_233
*533 FILLER_0_12_245
*534 FILLER_0_12_251
*535 FILLER_0_12_253
*536 FILLER_0_12_265
*537 FILLER_0_12_27
*538 FILLER_0_12_277
*539 FILLER_0_12_289
*540 FILLER_0_12_29
*541 FILLER_0_12_3
*542 FILLER_0_12_301
*543 FILLER_0_12_307
*544 FILLER_0_12_309
*545 FILLER_0_12_321
*546 FILLER_0_12_333
*547 FILLER_0_12_345
*548 FILLER_0_12_41
*549 FILLER_0_12_53
*550 FILLER_0_12_65
*551 FILLER_0_12_77
*552 FILLER_0_12_83
*553 FILLER_0_12_85
*554 FILLER_0_12_97
*555 FILLER_0_13_105
*556 FILLER_0_13_111
*557 FILLER_0_13_113
*558 FILLER_0_13_125
*559 FILLER_0_13_137
*560 FILLER_0_13_149
*561 FILLER_0_13_15
*562 FILLER_0_13_161
*563 FILLER_0_13_167
*564 FILLER_0_13_169
*565 FILLER_0_13_181
*566 FILLER_0_13_193
*567 FILLER_0_13_205
*568 FILLER_0_13_217
*569 FILLER_0_13_223
*570 FILLER_0_13_225
*571 FILLER_0_13_237
*572 FILLER_0_13_249
*573 FILLER_0_13_261
*574 FILLER_0_13_27
*575 FILLER_0_13_273
*576 FILLER_0_13_279
*577 FILLER_0_13_281
*578 FILLER_0_13_293
*579 FILLER_0_13_3
*580 FILLER_0_13_305
*581 FILLER_0_13_317
*582 FILLER_0_13_329
*583 FILLER_0_13_335
*584 FILLER_0_13_337
*585 FILLER_0_13_349
*586 FILLER_0_13_39
*587 FILLER_0_13_51
*588 FILLER_0_13_55
*589 FILLER_0_13_57
*590 FILLER_0_13_69
*591 FILLER_0_13_81
*592 FILLER_0_13_93
*593 FILLER_0_14_109
*594 FILLER_0_14_121
*595 FILLER_0_14_133
*596 FILLER_0_14_139
*597 FILLER_0_14_141
*598 FILLER_0_14_15
*599 FILLER_0_14_153
*600 FILLER_0_14_165
*601 FILLER_0_14_177
*602 FILLER_0_14_189
*603 FILLER_0_14_195
*604 FILLER_0_14_197
*605 FILLER_0_14_209
*606 FILLER_0_14_221
*607 FILLER_0_14_233
*608 FILLER_0_14_245
*609 FILLER_0_14_251
*610 FILLER_0_14_253
*611 FILLER_0_14_265
*612 FILLER_0_14_27
*613 FILLER_0_14_277
*614 FILLER_0_14_289
*615 FILLER_0_14_29
*616 FILLER_0_14_3
*617 FILLER_0_14_301
*618 FILLER_0_14_307
*619 FILLER_0_14_309
*620 FILLER_0_14_321
*621 FILLER_0_14_333
*622 FILLER_0_14_345
*623 FILLER_0_14_41
*624 FILLER_0_14_53
*625 FILLER_0_14_65
*626 FILLER_0_14_77
*627 FILLER_0_14_83
*628 FILLER_0_14_85
*629 FILLER_0_14_97
*630 FILLER_0_15_105
*631 FILLER_0_15_111
*632 FILLER_0_15_113
*633 FILLER_0_15_125
*634 FILLER_0_15_137
*635 FILLER_0_15_149
*636 FILLER_0_15_15
*637 FILLER_0_15_161
*638 FILLER_0_15_167
*639 FILLER_0_15_169
*640 FILLER_0_15_181
*641 FILLER_0_15_193
*642 FILLER_0_15_205
*643 FILLER_0_15_217
*644 FILLER_0_15_223
*645 FILLER_0_15_225
*646 FILLER_0_15_237
*647 FILLER_0_15_249
*648 FILLER_0_15_261
*649 FILLER_0_15_27
*650 FILLER_0_15_273
*651 FILLER_0_15_279
*652 FILLER_0_15_281
*653 FILLER_0_15_293
*654 FILLER_0_15_3
*655 FILLER_0_15_305
*656 FILLER_0_15_317
*657 FILLER_0_15_329
*658 FILLER_0_15_335
*659 FILLER_0_15_337
*660 FILLER_0_15_349
*661 FILLER_0_15_39
*662 FILLER_0_15_51
*663 FILLER_0_15_55
*664 FILLER_0_15_57
*665 FILLER_0_15_69
*666 FILLER_0_15_81
*667 FILLER_0_15_93
*668 FILLER_0_16_109
*669 FILLER_0_16_121
*670 FILLER_0_16_133
*671 FILLER_0_16_139
*672 FILLER_0_16_141
*673 FILLER_0_16_15
*674 FILLER_0_16_153
*675 FILLER_0_16_165
*676 FILLER_0_16_177
*677 FILLER_0_16_189
*678 FILLER_0_16_195
*679 FILLER_0_16_197
*680 FILLER_0_16_209
*681 FILLER_0_16_221
*682 FILLER_0_16_233
*683 FILLER_0_16_245
*684 FILLER_0_16_251
*685 FILLER_0_16_253
*686 FILLER_0_16_265
*687 FILLER_0_16_27
*688 FILLER_0_16_277
*689 FILLER_0_16_289
*690 FILLER_0_16_29
*691 FILLER_0_16_3
*692 FILLER_0_16_301
*693 FILLER_0_16_307
*694 FILLER_0_16_309
*695 FILLER_0_16_321
*696 FILLER_0_16_333
*697 FILLER_0_16_345
*698 FILLER_0_16_41
*699 FILLER_0_16_53
*700 FILLER_0_16_65
*701 FILLER_0_16_77
*702 FILLER_0_16_83
*703 FILLER_0_16_85
*704 FILLER_0_16_97
*705 FILLER_0_17_105
*706 FILLER_0_17_111
*707 FILLER_0_17_113
*708 FILLER_0_17_125
*709 FILLER_0_17_137
*710 FILLER_0_17_149
*711 FILLER_0_17_15
*712 FILLER_0_17_161
*713 FILLER_0_17_167
*714 FILLER_0_17_169
*715 FILLER_0_17_181
*716 FILLER_0_17_193
*717 FILLER_0_17_205
*718 FILLER_0_17_217
*719 FILLER_0_17_223
*720 FILLER_0_17_225
*721 FILLER_0_17_237
*722 FILLER_0_17_249
*723 FILLER_0_17_261
*724 FILLER_0_17_27
*725 FILLER_0_17_273
*726 FILLER_0_17_279
*727 FILLER_0_17_281
*728 FILLER_0_17_293
*729 FILLER_0_17_3
*730 FILLER_0_17_305
*731 FILLER_0_17_317
*732 FILLER_0_17_329
*733 FILLER_0_17_335
*734 FILLER_0_17_337
*735 FILLER_0_17_349
*736 FILLER_0_17_39
*737 FILLER_0_17_51
*738 FILLER_0_17_55
*739 FILLER_0_17_57
*740 FILLER_0_17_69
*741 FILLER_0_17_81
*742 FILLER_0_17_93
*743 FILLER_0_18_109
*744 FILLER_0_18_121
*745 FILLER_0_18_133
*746 FILLER_0_18_139
*747 FILLER_0_18_141
*748 FILLER_0_18_15
*749 FILLER_0_18_153
*750 FILLER_0_18_165
*751 FILLER_0_18_177
*752 FILLER_0_18_189
*753 FILLER_0_18_195
*754 FILLER_0_18_197
*755 FILLER_0_18_209
*756 FILLER_0_18_221
*757 FILLER_0_18_233
*758 FILLER_0_18_245
*759 FILLER_0_18_251
*760 FILLER_0_18_253
*761 FILLER_0_18_265
*762 FILLER_0_18_27
*763 FILLER_0_18_277
*764 FILLER_0_18_289
*765 FILLER_0_18_29
*766 FILLER_0_18_3
*767 FILLER_0_18_301
*768 FILLER_0_18_307
*769 FILLER_0_18_309
*770 FILLER_0_18_321
*771 FILLER_0_18_333
*772 FILLER_0_18_345
*773 FILLER_0_18_41
*774 FILLER_0_18_53
*775 FILLER_0_18_65
*776 FILLER_0_18_77
*777 FILLER_0_18_83
*778 FILLER_0_18_85
*779 FILLER_0_18_97
*780 FILLER_0_19_105
*781 FILLER_0_19_111
*782 FILLER_0_19_113
*783 FILLER_0_19_125
*784 FILLER_0_19_137
*785 FILLER_0_19_149
*786 FILLER_0_19_15
*787 FILLER_0_19_161
*788 FILLER_0_19_167
*789 FILLER_0_19_169
*790 FILLER_0_19_181
*791 FILLER_0_19_193
*792 FILLER_0_19_205
*793 FILLER_0_19_217
*794 FILLER_0_19_223
*795 FILLER_0_19_225
*796 FILLER_0_19_237
*797 FILLER_0_19_249
*798 FILLER_0_19_261
*799 FILLER_0_19_27
*800 FILLER_0_19_273
*801 FILLER_0_19_279
*802 FILLER_0_19_281
*803 FILLER_0_19_293
*804 FILLER_0_19_3
*805 FILLER_0_19_305
*806 FILLER_0_19_317
*807 FILLER_0_19_329
*808 FILLER_0_19_335
*809 FILLER_0_19_337
*810 FILLER_0_19_349
*811 FILLER_0_19_39
*812 FILLER_0_19_51
*813 FILLER_0_19_55
*814 FILLER_0_19_57
*815 FILLER_0_19_69
*816 FILLER_0_19_81
*817 FILLER_0_19_93
*818 FILLER_0_1_105
*819 FILLER_0_1_111
*820 FILLER_0_1_113
*821 FILLER_0_1_125
*822 FILLER_0_1_137
*823 FILLER_0_1_149
*824 FILLER_0_1_15
*825 FILLER_0_1_161
*826 FILLER_0_1_167
*827 FILLER_0_1_169
*828 FILLER_0_1_181
*829 FILLER_0_1_193
*830 FILLER_0_1_205
*831 FILLER_0_1_217
*832 FILLER_0_1_223
*833 FILLER_0_1_225
*834 FILLER_0_1_237
*835 FILLER_0_1_249
*836 FILLER_0_1_261
*837 FILLER_0_1_27
*838 FILLER_0_1_273
*839 FILLER_0_1_279
*840 FILLER_0_1_281
*841 FILLER_0_1_293
*842 FILLER_0_1_3
*843 FILLER_0_1_305
*844 FILLER_0_1_317
*845 FILLER_0_1_329
*846 FILLER_0_1_335
*847 FILLER_0_1_337
*848 FILLER_0_1_349
*849 FILLER_0_1_39
*850 FILLER_0_1_51
*851 FILLER_0_1_55
*852 FILLER_0_1_57
*853 FILLER_0_1_69
*854 FILLER_0_1_81
*855 FILLER_0_1_93
*856 FILLER_0_20_109
*857 FILLER_0_20_121
*858 FILLER_0_20_133
*859 FILLER_0_20_139
*860 FILLER_0_20_141
*861 FILLER_0_20_15
*862 FILLER_0_20_153
*863 FILLER_0_20_165
*864 FILLER_0_20_177
*865 FILLER_0_20_189
*866 FILLER_0_20_195
*867 FILLER_0_20_197
*868 FILLER_0_20_209
*869 FILLER_0_20_221
*870 FILLER_0_20_233
*871 FILLER_0_20_245
*872 FILLER_0_20_251
*873 FILLER_0_20_253
*874 FILLER_0_20_265
*875 FILLER_0_20_27
*876 FILLER_0_20_277
*877 FILLER_0_20_289
*878 FILLER_0_20_29
*879 FILLER_0_20_3
*880 FILLER_0_20_301
*881 FILLER_0_20_307
*882 FILLER_0_20_309
*883 FILLER_0_20_321
*884 FILLER_0_20_333
*885 FILLER_0_20_345
*886 FILLER_0_20_41
*887 FILLER_0_20_53
*888 FILLER_0_20_65
*889 FILLER_0_20_77
*890 FILLER_0_20_83
*891 FILLER_0_20_85
*892 FILLER_0_20_97
*893 FILLER_0_21_105
*894 FILLER_0_21_111
*895 FILLER_0_21_113
*896 FILLER_0_21_125
*897 FILLER_0_21_137
*898 FILLER_0_21_149
*899 FILLER_0_21_15
*900 FILLER_0_21_161
*901 FILLER_0_21_167
*902 FILLER_0_21_169
*903 FILLER_0_21_181
*904 FILLER_0_21_193
*905 FILLER_0_21_205
*906 FILLER_0_21_217
*907 FILLER_0_21_223
*908 FILLER_0_21_225
*909 FILLER_0_21_237
*910 FILLER_0_21_249
*911 FILLER_0_21_261
*912 FILLER_0_21_27
*913 FILLER_0_21_273
*914 FILLER_0_21_279
*915 FILLER_0_21_281
*916 FILLER_0_21_293
*917 FILLER_0_21_3
*918 FILLER_0_21_305
*919 FILLER_0_21_317
*920 FILLER_0_21_329
*921 FILLER_0_21_335
*922 FILLER_0_21_337
*923 FILLER_0_21_349
*924 FILLER_0_21_39
*925 FILLER_0_21_51
*926 FILLER_0_21_55
*927 FILLER_0_21_57
*928 FILLER_0_21_69
*929 FILLER_0_21_81
*930 FILLER_0_21_93
*931 FILLER_0_22_109
*932 FILLER_0_22_121
*933 FILLER_0_22_133
*934 FILLER_0_22_139
*935 FILLER_0_22_141
*936 FILLER_0_22_15
*937 FILLER_0_22_153
*938 FILLER_0_22_165
*939 FILLER_0_22_177
*940 FILLER_0_22_189
*941 FILLER_0_22_195
*942 FILLER_0_22_197
*943 FILLER_0_22_209
*944 FILLER_0_22_221
*945 FILLER_0_22_233
*946 FILLER_0_22_245
*947 FILLER_0_22_251
*948 FILLER_0_22_253
*949 FILLER_0_22_265
*950 FILLER_0_22_27
*951 FILLER_0_22_277
*952 FILLER_0_22_289
*953 FILLER_0_22_29
*954 FILLER_0_22_3
*955 FILLER_0_22_301
*956 FILLER_0_22_307
*957 FILLER_0_22_309
*958 FILLER_0_22_321
*959 FILLER_0_22_333
*960 FILLER_0_22_345
*961 FILLER_0_22_41
*962 FILLER_0_22_53
*963 FILLER_0_22_65
*964 FILLER_0_22_77
*965 FILLER_0_22_83
*966 FILLER_0_22_85
*967 FILLER_0_22_97
*968 FILLER_0_23_105
*969 FILLER_0_23_111
*970 FILLER_0_23_113
*971 FILLER_0_23_125
*972 FILLER_0_23_137
*973 FILLER_0_23_149
*974 FILLER_0_23_15
*975 FILLER_0_23_161
*976 FILLER_0_23_167
*977 FILLER_0_23_169
*978 FILLER_0_23_181
*979 FILLER_0_23_193
*980 FILLER_0_23_205
*981 FILLER_0_23_217
*982 FILLER_0_23_223
*983 FILLER_0_23_225
*984 FILLER_0_23_237
*985 FILLER_0_23_249
*986 FILLER_0_23_261
*987 FILLER_0_23_27
*988 FILLER_0_23_273
*989 FILLER_0_23_279
*990 FILLER_0_23_281
*991 FILLER_0_23_293
*992 FILLER_0_23_3
*993 FILLER_0_23_305
*994 FILLER_0_23_317
*995 FILLER_0_23_329
*996 FILLER_0_23_335
*997 FILLER_0_23_337
*998 FILLER_0_23_349
*999 FILLER_0_23_39
*1000 FILLER_0_23_51
*1001 FILLER_0_23_55
*1002 FILLER_0_23_57
*1003 FILLER_0_23_69
*1004 FILLER_0_23_81
*1005 FILLER_0_23_93
*1006 FILLER_0_24_105
*1007 FILLER_0_24_117
*1008 FILLER_0_24_129
*1009 FILLER_0_24_137
*1010 FILLER_0_24_141
*1011 FILLER_0_24_15
*1012 FILLER_0_24_153
*1013 FILLER_0_24_165
*1014 FILLER_0_24_177
*1015 FILLER_0_24_189
*1016 FILLER_0_24_195
*1017 FILLER_0_24_197
*1018 FILLER_0_24_209
*1019 FILLER_0_24_213
*1020 FILLER_0_24_230
*1021 FILLER_0_24_242
*1022 FILLER_0_24_250
*1023 FILLER_0_24_253
*1024 FILLER_0_24_265
*1025 FILLER_0_24_27
*1026 FILLER_0_24_277
*1027 FILLER_0_24_289
*1028 FILLER_0_24_29
*1029 FILLER_0_24_3
*1030 FILLER_0_24_301
*1031 FILLER_0_24_307
*1032 FILLER_0_24_309
*1033 FILLER_0_24_321
*1034 FILLER_0_24_333
*1035 FILLER_0_24_345
*1036 FILLER_0_24_41
*1037 FILLER_0_24_53
*1038 FILLER_0_24_65
*1039 FILLER_0_24_77
*1040 FILLER_0_24_83
*1041 FILLER_0_25_110
*1042 FILLER_0_25_113
*1043 FILLER_0_25_125
*1044 FILLER_0_25_131
*1045 FILLER_0_25_15
*1046 FILLER_0_25_151
*1047 FILLER_0_25_163
*1048 FILLER_0_25_167
*1049 FILLER_0_25_169
*1050 FILLER_0_25_181
*1051 FILLER_0_25_193
*1052 FILLER_0_25_205
*1053 FILLER_0_25_217
*1054 FILLER_0_25_223
*1055 FILLER_0_25_225
*1056 FILLER_0_25_233
*1057 FILLER_0_25_251
*1058 FILLER_0_25_269
*1059 FILLER_0_25_27
*1060 FILLER_0_25_277
*1061 FILLER_0_25_281
*1062 FILLER_0_25_293
*1063 FILLER_0_25_3
*1064 FILLER_0_25_305
*1065 FILLER_0_25_317
*1066 FILLER_0_25_329
*1067 FILLER_0_25_335
*1068 FILLER_0_25_337
*1069 FILLER_0_25_349
*1070 FILLER_0_25_39
*1071 FILLER_0_25_51
*1072 FILLER_0_25_55
*1073 FILLER_0_25_57
*1074 FILLER_0_25_69
*1075 FILLER_0_25_87
*1076 FILLER_0_25_93
*1077 FILLER_0_26_104
*1078 FILLER_0_26_114
*1079 FILLER_0_26_126
*1080 FILLER_0_26_139
*1081 FILLER_0_26_141
*1082 FILLER_0_26_147
*1083 FILLER_0_26_15
*1084 FILLER_0_26_183
*1085 FILLER_0_26_194
*1086 FILLER_0_26_214
*1087 FILLER_0_26_218
*1088 FILLER_0_26_227
*1089 FILLER_0_26_235
*1090 FILLER_0_26_241
*1091 FILLER_0_26_247
*1092 FILLER_0_26_251
*1093 FILLER_0_26_253
*1094 FILLER_0_26_265
*1095 FILLER_0_26_27
*1096 FILLER_0_26_273
*1097 FILLER_0_26_285
*1098 FILLER_0_26_29
*1099 FILLER_0_26_294
*1100 FILLER_0_26_3
*1101 FILLER_0_26_306
*1102 FILLER_0_26_309
*1103 FILLER_0_26_317
*1104 FILLER_0_26_323
*1105 FILLER_0_26_348
*1106 FILLER_0_26_41
*1107 FILLER_0_26_49
*1108 FILLER_0_26_68
*1109 FILLER_0_26_76
*1110 FILLER_0_26_82
*1111 FILLER_0_26_88
*1112 FILLER_0_27_11
*1113 FILLER_0_27_110
*1114 FILLER_0_27_113
*1115 FILLER_0_27_132
*1116 FILLER_0_27_156
*1117 FILLER_0_27_17
*1118 FILLER_0_27_172
*1119 FILLER_0_27_184
*1120 FILLER_0_27_190
*1121 FILLER_0_27_198
*1122 FILLER_0_27_216
*1123 FILLER_0_27_23
*1124 FILLER_0_27_241
*1125 FILLER_0_27_259
*1126 FILLER_0_27_267
*1127 FILLER_0_27_281
*1128 FILLER_0_27_291
*1129 FILLER_0_27_3
*1130 FILLER_0_27_308
*1131 FILLER_0_27_335
*1132 FILLER_0_27_337
*1133 FILLER_0_27_349
*1134 FILLER_0_27_39
*1135 FILLER_0_27_57
*1136 FILLER_0_27_68
*1137 FILLER_0_27_90
*1138 FILLER_0_28_122
*1139 FILLER_0_28_134
*1140 FILLER_0_28_149
*1141 FILLER_0_28_174
*1142 FILLER_0_28_178
*1143 FILLER_0_28_195
*1144 FILLER_0_28_197
*1145 FILLER_0_28_212
*1146 FILLER_0_28_220
*1147 FILLER_0_28_238
*1148 FILLER_0_28_245
*1149 FILLER_0_28_253
*1150 FILLER_0_28_262
*1151 FILLER_0_28_266
*1152 FILLER_0_28_272
*1153 FILLER_0_28_276
*1154 FILLER_0_28_280
*1155 FILLER_0_28_292
*1156 FILLER_0_28_296
*1157 FILLER_0_28_312
*1158 FILLER_0_28_324
*1159 FILLER_0_28_336
*1160 FILLER_0_28_348
*1161 FILLER_0_28_42
*1162 FILLER_0_28_55
*1163 FILLER_0_28_76
*1164 FILLER_0_28_81
*1165 FILLER_0_28_93
*1166 FILLER_0_29_111
*1167 FILLER_0_29_113
*1168 FILLER_0_29_121
*1169 FILLER_0_29_134
*1170 FILLER_0_29_152
*1171 FILLER_0_29_160
*1172 FILLER_0_29_164
*1173 FILLER_0_29_169
*1174 FILLER_0_29_177
*1175 FILLER_0_29_181
*1176 FILLER_0_29_190
*1177 FILLER_0_29_198
*1178 FILLER_0_29_202
*1179 FILLER_0_29_214
*1180 FILLER_0_29_222
*1181 FILLER_0_29_225
*1182 FILLER_0_29_251
*1183 FILLER_0_29_28
*1184 FILLER_0_29_287
*1185 FILLER_0_29_293
*1186 FILLER_0_29_297
*1187 FILLER_0_29_3
*1188 FILLER_0_29_321
*1189 FILLER_0_29_341
*1190 FILLER_0_29_349
*1191 FILLER_0_29_35
*1192 FILLER_0_29_47
*1193 FILLER_0_29_55
*1194 FILLER_0_29_62
*1195 FILLER_0_29_81
*1196 FILLER_0_29_99
*1197 FILLER_0_2_109
*1198 FILLER_0_2_121
*1199 FILLER_0_2_133
*1200 FILLER_0_2_139
*1201 FILLER_0_2_141
*1202 FILLER_0_2_15
*1203 FILLER_0_2_153
*1204 FILLER_0_2_165
*1205 FILLER_0_2_177
*1206 FILLER_0_2_189
*1207 FILLER_0_2_195
*1208 FILLER_0_2_197
*1209 FILLER_0_2_209
*1210 FILLER_0_2_221
*1211 FILLER_0_2_233
*1212 FILLER_0_2_245
*1213 FILLER_0_2_251
*1214 FILLER_0_2_253
*1215 FILLER_0_2_265
*1216 FILLER_0_2_27
*1217 FILLER_0_2_277
*1218 FILLER_0_2_289
*1219 FILLER_0_2_29
*1220 FILLER_0_2_3
*1221 FILLER_0_2_301
*1222 FILLER_0_2_307
*1223 FILLER_0_2_309
*1224 FILLER_0_2_321
*1225 FILLER_0_2_333
*1226 FILLER_0_2_345
*1227 FILLER_0_2_41
*1228 FILLER_0_2_53
*1229 FILLER_0_2_65
*1230 FILLER_0_2_77
*1231 FILLER_0_2_83
*1232 FILLER_0_2_85
*1233 FILLER_0_2_97
*1234 FILLER_0_30_136
*1235 FILLER_0_30_144
*1236 FILLER_0_30_152
*1237 FILLER_0_30_169
*1238 FILLER_0_30_181
*1239 FILLER_0_30_187
*1240 FILLER_0_30_195
*1241 FILLER_0_30_197
*1242 FILLER_0_30_232
*1243 FILLER_0_30_253
*1244 FILLER_0_30_267
*1245 FILLER_0_30_27
*1246 FILLER_0_30_276
*1247 FILLER_0_30_284
*1248 FILLER_0_30_29
*1249 FILLER_0_30_304
*1250 FILLER_0_30_309
*1251 FILLER_0_30_326
*1252 FILLER_0_30_345
*1253 FILLER_0_30_44
*1254 FILLER_0_30_50
*1255 FILLER_0_30_62
*1256 FILLER_0_30_68
*1257 FILLER_0_30_78
*1258 FILLER_0_31_108
*1259 FILLER_0_31_113
*1260 FILLER_0_31_125
*1261 FILLER_0_31_131
*1262 FILLER_0_31_146
*1263 FILLER_0_31_15
*1264 FILLER_0_31_169
*1265 FILLER_0_31_214
*1266 FILLER_0_31_222
*1267 FILLER_0_31_234
*1268 FILLER_0_31_243
*1269 FILLER_0_31_251
*1270 FILLER_0_31_267
*1271 FILLER_0_31_279
*1272 FILLER_0_31_289
*1273 FILLER_0_31_3
*1274 FILLER_0_31_30
*1275 FILLER_0_31_301
*1276 FILLER_0_31_309
*1277 FILLER_0_31_333
*1278 FILLER_0_31_337
*1279 FILLER_0_31_349
*1280 FILLER_0_31_36
*1281 FILLER_0_31_40
*1282 FILLER_0_31_48
*1283 FILLER_0_31_54
*1284 FILLER_0_31_57
*1285 FILLER_0_31_74
*1286 FILLER_0_31_80
*1287 FILLER_0_31_90
*1288 FILLER_0_31_99
*1289 FILLER_0_32_108
*1290 FILLER_0_32_125
*1291 FILLER_0_32_133
*1292 FILLER_0_32_138
*1293 FILLER_0_32_15
*1294 FILLER_0_32_157
*1295 FILLER_0_32_161
*1296 FILLER_0_32_167
*1297 FILLER_0_32_171
*1298 FILLER_0_32_240
*1299 FILLER_0_32_256
*1300 FILLER_0_32_268
*1301 FILLER_0_32_27
*1302 FILLER_0_32_277
*1303 FILLER_0_32_288
*1304 FILLER_0_32_3
*1305 FILLER_0_32_300
*1306 FILLER_0_32_304
*1307 FILLER_0_32_316
*1308 FILLER_0_32_325
*1309 FILLER_0_32_33
*1310 FILLER_0_32_337
*1311 FILLER_0_32_349
*1312 FILLER_0_32_49
*1313 FILLER_0_32_53
*1314 FILLER_0_32_58
*1315 FILLER_0_32_70
*1316 FILLER_0_32_80
*1317 FILLER_0_32_89
*1318 FILLER_0_33_103
*1319 FILLER_0_33_111
*1320 FILLER_0_33_118
*1321 FILLER_0_33_122
*1322 FILLER_0_33_134
*1323 FILLER_0_33_146
*1324 FILLER_0_33_164
*1325 FILLER_0_33_178
*1326 FILLER_0_33_190
*1327 FILLER_0_33_198
*1328 FILLER_0_33_202
*1329 FILLER_0_33_210
*1330 FILLER_0_33_221
*1331 FILLER_0_33_225
*1332 FILLER_0_33_237
*1333 FILLER_0_33_255
*1334 FILLER_0_33_261
*1335 FILLER_0_33_27
*1336 FILLER_0_33_271
*1337 FILLER_0_33_279
*1338 FILLER_0_33_289
*1339 FILLER_0_33_297
*1340 FILLER_0_33_3
*1341 FILLER_0_33_304
*1342 FILLER_0_33_334
*1343 FILLER_0_33_337
*1344 FILLER_0_33_34
*1345 FILLER_0_33_349
*1346 FILLER_0_33_42
*1347 FILLER_0_33_50
*1348 FILLER_0_33_93
*1349 FILLER_0_34_105
*1350 FILLER_0_34_111
*1351 FILLER_0_34_137
*1352 FILLER_0_34_150
*1353 FILLER_0_34_162
*1354 FILLER_0_34_17
*1355 FILLER_0_34_184
*1356 FILLER_0_34_194
*1357 FILLER_0_34_203
*1358 FILLER_0_34_211
*1359 FILLER_0_34_216
*1360 FILLER_0_34_224
*1361 FILLER_0_34_230
*1362 FILLER_0_34_248
*1363 FILLER_0_34_274
*1364 FILLER_0_34_3
*1365 FILLER_0_34_300
*1366 FILLER_0_34_330
*1367 FILLER_0_34_348
*1368 FILLER_0_34_42
*1369 FILLER_0_34_62
*1370 FILLER_0_34_74
*1371 FILLER_0_34_82
*1372 FILLER_0_35_113
*1373 FILLER_0_35_125
*1374 FILLER_0_35_137
*1375 FILLER_0_35_167
*1376 FILLER_0_35_169
*1377 FILLER_0_35_173
*1378 FILLER_0_35_182
*1379 FILLER_0_35_194
*1380 FILLER_0_35_20
*1381 FILLER_0_35_206
*1382 FILLER_0_35_223
*1383 FILLER_0_35_234
*1384 FILLER_0_35_242
*1385 FILLER_0_35_250
*1386 FILLER_0_35_258
*1387 FILLER_0_35_26
*1388 FILLER_0_35_263
*1389 FILLER_0_35_275
*1390 FILLER_0_35_279
*1391 FILLER_0_35_281
*1392 FILLER_0_35_288
*1393 FILLER_0_35_296
*1394 FILLER_0_35_3
*1395 FILLER_0_35_301
*1396 FILLER_0_35_313
*1397 FILLER_0_35_325
*1398 FILLER_0_35_334
*1399 FILLER_0_35_340
*1400 FILLER_0_35_348
*1401 FILLER_0_35_35
*1402 FILLER_0_35_43
*1403 FILLER_0_35_50
*1404 FILLER_0_35_62
*1405 FILLER_0_35_66
*1406 FILLER_0_35_95
*1407 FILLER_0_36_109
*1408 FILLER_0_36_135
*1409 FILLER_0_36_139
*1410 FILLER_0_36_141
*1411 FILLER_0_36_147
*1412 FILLER_0_36_15
*1413 FILLER_0_36_156
*1414 FILLER_0_36_178
*1415 FILLER_0_36_185
*1416 FILLER_0_36_205
*1417 FILLER_0_36_213
*1418 FILLER_0_36_230
*1419 FILLER_0_36_253
*1420 FILLER_0_36_27
*1421 FILLER_0_36_270
*1422 FILLER_0_36_289
*1423 FILLER_0_36_3
*1424 FILLER_0_36_309
*1425 FILLER_0_36_327
*1426 FILLER_0_36_332
*1427 FILLER_0_36_349
*1428 FILLER_0_36_83
*1429 FILLER_0_37_113
*1430 FILLER_0_37_128
*1431 FILLER_0_37_132
*1432 FILLER_0_37_145
*1433 FILLER_0_37_15
*1434 FILLER_0_37_167
*1435 FILLER_0_37_181
*1436 FILLER_0_37_187
*1437 FILLER_0_37_211
*1438 FILLER_0_37_220
*1439 FILLER_0_37_225
*1440 FILLER_0_37_237
*1441 FILLER_0_37_255
*1442 FILLER_0_37_264
*1443 FILLER_0_37_268
*1444 FILLER_0_37_27
*1445 FILLER_0_37_272
*1446 FILLER_0_37_278
*1447 FILLER_0_37_284
*1448 FILLER_0_37_290
*1449 FILLER_0_37_3
*1450 FILLER_0_37_303
*1451 FILLER_0_37_320
*1452 FILLER_0_37_325
*1453 FILLER_0_37_333
*1454 FILLER_0_37_337
*1455 FILLER_0_37_349
*1456 FILLER_0_37_39
*1457 FILLER_0_37_46
*1458 FILLER_0_37_54
*1459 FILLER_0_37_57
*1460 FILLER_0_37_69
*1461 FILLER_0_37_81
*1462 FILLER_0_37_85
*1463 FILLER_0_37_95
*1464 FILLER_0_38_102
*1465 FILLER_0_38_109
*1466 FILLER_0_38_113
*1467 FILLER_0_38_119
*1468 FILLER_0_38_138
*1469 FILLER_0_38_141
*1470 FILLER_0_38_145
*1471 FILLER_0_38_15
*1472 FILLER_0_38_169
*1473 FILLER_0_38_193
*1474 FILLER_0_38_214
*1475 FILLER_0_38_218
*1476 FILLER_0_38_253
*1477 FILLER_0_38_27
*1478 FILLER_0_38_29
*1479 FILLER_0_38_3
*1480 FILLER_0_38_309
*1481 FILLER_0_38_337
*1482 FILLER_0_38_349
*1483 FILLER_0_38_37
*1484 FILLER_0_38_57
*1485 FILLER_0_38_72
*1486 FILLER_0_38_78
*1487 FILLER_0_38_85
*1488 FILLER_0_38_90
*1489 FILLER_0_38_95
*1490 FILLER_0_3_105
*1491 FILLER_0_3_111
*1492 FILLER_0_3_113
*1493 FILLER_0_3_125
*1494 FILLER_0_3_137
*1495 FILLER_0_3_149
*1496 FILLER_0_3_15
*1497 FILLER_0_3_161
*1498 FILLER_0_3_167
*1499 FILLER_0_3_169
*1500 FILLER_0_3_181
*1501 FILLER_0_3_193
*1502 FILLER_0_3_205
*1503 FILLER_0_3_217
*1504 FILLER_0_3_223
*1505 FILLER_0_3_225
*1506 FILLER_0_3_237
*1507 FILLER_0_3_249
*1508 FILLER_0_3_261
*1509 FILLER_0_3_27
*1510 FILLER_0_3_273
*1511 FILLER_0_3_279