*SPEF "ieee 1481-1999"
*DESIGN "tt_um_urish_skullfet"
*DATE "11:11:11 Fri 11 11, 1111"
*VENDOR "OpenRCX"
*PROGRAM "Parallel Extraction"
*VERSION "1.0"
*DESIGN_FLOW "NAME_SCOPE LOCAL" "PIN_CAP NONE"
*DIVIDER /
*DELIMITER :
*BUS_DELIMITER []
*T_UNIT 1 NS
*C_UNIT 1 PF
*R_UNIT 1 OHM
*L_UNIT 1 HENRY

*NAME_MAP
*3 clk
*4 ena
*5 rst_n
*6 ui_in[0]
*7 ui_in[1]
*8 ui_in[2]
*9 ui_in[3]
*10 ui_in[4]
*11 ui_in[5]
*12 ui_in[6]
*13 ui_in[7]
*14 uio_in[0]
*15 uio_in[1]
*16 uio_in[2]
*17 uio_in[3]
*18 uio_in[4]
*19 uio_in[5]
*20 uio_in[6]
*21 uio_in[7]
*22 uio_oe[0]
*23 uio_oe[1]
*24 uio_oe[2]
*25 uio_oe[3]
*26 uio_oe[4]
*27 uio_oe[5]
*28 uio_oe[6]
*29 uio_oe[7]
*30 uio_out[0]
*31 uio_out[1]
*32 uio_out[2]
*33 uio_out[3]
*34 uio_out[4]
*35 uio_out[5]
*36 uio_out[6]
*37 uio_out[7]
*38 uo_out[0]
*39 uo_out[1]
*40 uo_out[2]
*41 uo_out[3]
*42 uo_out[4]
*43 uo_out[5]
*44 uo_out[6]
*45 uo_out[7]
*46 inv1_out
*47 nand1_out
*48 net1
*49 net10
*50 net11
*51 net12
*52 net13
*53 net14
*54 net15
*55 net16
*56 net17
*57 net18
*58 net19
*59 net2
*60 net20
*61 net21
*62 net22
*63 net23
*64 net24
*65 net25
*66 net26
*67 net3
*68 net4
*69 net5
*70 net6
*71 net7
*72 net8
*73 net9
*74 FILLER_0_0_109
*75 FILLER_0_0_113
*76 FILLER_0_0_125
*77 FILLER_0_0_137
*78 FILLER_0_0_141
*79 FILLER_0_0_15
*80 FILLER_0_0_153
*81 FILLER_0_0_165
*82 FILLER_0_0_169
*83 FILLER_0_0_181
*84 FILLER_0_0_193
*85 FILLER_0_0_197
*86 FILLER_0_0_209
*87 FILLER_0_0_221
*88 FILLER_0_0_225
*89 FILLER_0_0_237
*90 FILLER_0_0_249
*91 FILLER_0_0_253
*92 FILLER_0_0_265
*93 FILLER_0_0_27
*94 FILLER_0_0_277
*95 FILLER_0_0_281
*96 FILLER_0_0_29
*97 FILLER_0_0_293
*98 FILLER_0_0_3
*99 FILLER_0_0_305
*100 FILLER_0_0_309
*101 FILLER_0_0_321
*102 FILLER_0_0_41
*103 FILLER_0_0_53
*104 FILLER_0_0_57
*105 FILLER_0_0_69
*106 FILLER_0_0_81
*107 FILLER_0_0_85
*108 FILLER_0_0_97
*109 FILLER_0_10_102
*110 FILLER_0_10_114
*111 FILLER_0_10_126
*112 FILLER_0_10_138
*113 FILLER_0_10_144
*114 FILLER_0_10_146
*115 FILLER_0_10_15
*116 FILLER_0_10_158
*117 FILLER_0_10_170
*118 FILLER_0_10_182
*119 FILLER_0_10_194
*120 FILLER_0_10_200
*121 FILLER_0_10_202
*122 FILLER_0_10_214
*123 FILLER_0_10_226
*124 FILLER_0_10_238
*125 FILLER_0_10_250
*126 FILLER_0_10_256
*127 FILLER_0_10_258
*128 FILLER_0_10_27
*129 FILLER_0_10_270
*130 FILLER_0_10_282
*131 FILLER_0_10_29
*132 FILLER_0_10_294
*133 FILLER_0_10_3
*134 FILLER_0_10_306
*135 FILLER_0_10_312
*136 FILLER_0_10_314
*137 FILLER_0_10_326
*138 FILLER_0_10_64
*139 FILLER_0_10_76
*140 FILLER_0_10_88
*141 FILLER_0_10_90
*142 FILLER_0_11_100
*143 FILLER_0_11_112
*144 FILLER_0_11_116
*145 FILLER_0_11_118
*146 FILLER_0_11_130
*147 FILLER_0_11_142
*148 FILLER_0_11_15
*149 FILLER_0_11_154
*150 FILLER_0_11_166
*151 FILLER_0_11_172
*152 FILLER_0_11_174
*153 FILLER_0_11_186
*154 FILLER_0_11_198
*155 FILLER_0_11_210
*156 FILLER_0_11_222
*157 FILLER_0_11_228
*158 FILLER_0_11_230
*159 FILLER_0_11_242
*160 FILLER_0_11_254
*161 FILLER_0_11_266
*162 FILLER_0_11_27
*163 FILLER_0_11_278
*164 FILLER_0_11_284
*165 FILLER_0_11_286
*166 FILLER_0_11_298
*167 FILLER_0_11_3
*168 FILLER_0_11_310
*169 FILLER_0_11_322
*170 FILLER_0_11_326
*171 FILLER_0_11_64
*172 FILLER_0_11_76
*173 FILLER_0_11_88
*174 FILLER_0_12_102
*175 FILLER_0_12_114
*176 FILLER_0_12_126
*177 FILLER_0_12_138
*178 FILLER_0_12_144
*179 FILLER_0_12_146
*180 FILLER_0_12_15
*181 FILLER_0_12_158
*182 FILLER_0_12_170
*183 FILLER_0_12_182
*184 FILLER_0_12_194
*185 FILLER_0_12_200
*186 FILLER_0_12_202
*187 FILLER_0_12_214
*188 FILLER_0_12_226
*189 FILLER_0_12_238
*190 FILLER_0_12_250
*191 FILLER_0_12_256
*192 FILLER_0_12_258
*193 FILLER_0_12_27
*194 FILLER_0_12_270
*195 FILLER_0_12_282
*196 FILLER_0_12_29
*197 FILLER_0_12_294
*198 FILLER_0_12_3
*199 FILLER_0_12_306
*200 FILLER_0_12_312
*201 FILLER_0_12_314
*202 FILLER_0_12_326
*203 FILLER_0_12_64
*204 FILLER_0_12_76
*205 FILLER_0_12_88
*206 FILLER_0_12_90
*207 FILLER_0_13_100
*208 FILLER_0_13_112
*209 FILLER_0_13_116
*210 FILLER_0_13_118
*211 FILLER_0_13_130
*212 FILLER_0_13_142
*213 FILLER_0_13_15
*214 FILLER_0_13_154
*215 FILLER_0_13_166
*216 FILLER_0_13_172
*217 FILLER_0_13_174
*218 FILLER_0_13_186
*219 FILLER_0_13_198
*220 FILLER_0_13_210
*221 FILLER_0_13_222
*222 FILLER_0_13_228
*223 FILLER_0_13_230
*224 FILLER_0_13_242
*225 FILLER_0_13_254
*226 FILLER_0_13_266
*227 FILLER_0_13_27
*228 FILLER_0_13_278
*229 FILLER_0_13_284
*230 FILLER_0_13_286
*231 FILLER_0_13_298
*232 FILLER_0_13_3
*233 FILLER_0_13_310
*234 FILLER_0_13_322
*235 FILLER_0_13_326
*236 FILLER_0_13_64
*237 FILLER_0_13_76
*238 FILLER_0_13_88
*239 FILLER_0_14_102
*240 FILLER_0_14_114
*241 FILLER_0_14_126
*242 FILLER_0_14_138
*243 FILLER_0_14_144
*244 FILLER_0_14_146
*245 FILLER_0_14_15
*246 FILLER_0_14_158
*247 FILLER_0_14_170
*248 FILLER_0_14_182
*249 FILLER_0_14_194
*250 FILLER_0_14_200
*251 FILLER_0_14_202
*252 FILLER_0_14_214
*253 FILLER_0_14_226
*254 FILLER_0_14_238
*255 FILLER_0_14_250
*256 FILLER_0_14_256
*257 FILLER_0_14_258
*258 FILLER_0_14_27
*259 FILLER_0_14_270
*260 FILLER_0_14_282
*261 FILLER_0_14_29
*262 FILLER_0_14_294
*263 FILLER_0_14_3
*264 FILLER_0_14_306
*265 FILLER_0_14_312
*266 FILLER_0_14_314
*267 FILLER_0_14_326
*268 FILLER_0_14_64
*269 FILLER_0_14_76
*270 FILLER_0_14_88
*271 FILLER_0_14_90
*272 FILLER_0_15_100
*273 FILLER_0_15_112
*274 FILLER_0_15_116
*275 FILLER_0_15_118
*276 FILLER_0_15_130
*277 FILLER_0_15_142
*278 FILLER_0_15_15
*279 FILLER_0_15_154
*280 FILLER_0_15_166
*281 FILLER_0_15_172
*282 FILLER_0_15_174
*283 FILLER_0_15_186
*284 FILLER_0_15_198
*285 FILLER_0_15_210
*286 FILLER_0_15_222
*287 FILLER_0_15_228
*288 FILLER_0_15_230
*289 FILLER_0_15_242
*290 FILLER_0_15_254
*291 FILLER_0_15_266
*292 FILLER_0_15_27
*293 FILLER_0_15_278
*294 FILLER_0_15_284
*295 FILLER_0_15_286
*296 FILLER_0_15_298
*297 FILLER_0_15_3
*298 FILLER_0_15_310
*299 FILLER_0_15_322
*300 FILLER_0_15_326
*301 FILLER_0_15_64
*302 FILLER_0_15_76
*303 FILLER_0_15_88
*304 FILLER_0_16_109
*305 FILLER_0_16_113
*306 FILLER_0_16_125
*307 FILLER_0_16_137
*308 FILLER_0_16_141
*309 FILLER_0_16_15
*310 FILLER_0_16_153
*311 FILLER_0_16_165
*312 FILLER_0_16_169
*313 FILLER_0_16_181
*314 FILLER_0_16_193
*315 FILLER_0_16_197
*316 FILLER_0_16_209
*317 FILLER_0_16_221
*318 FILLER_0_16_225
*319 FILLER_0_16_237
*320 FILLER_0_16_249
*321 FILLER_0_16_253
*322 FILLER_0_16_265
*323 FILLER_0_16_27
*324 FILLER_0_16_277
*325 FILLER_0_16_281
*326 FILLER_0_16_29
*327 FILLER_0_16_293
*328 FILLER_0_16_3
*329 FILLER_0_16_305
*330 FILLER_0_16_309
*331 FILLER_0_16_321
*332 FILLER_0_16_41
*333 FILLER_0_16_53
*334 FILLER_0_16_57
*335 FILLER_0_16_69
*336 FILLER_0_16_81
*337 FILLER_0_16_85
*338 FILLER_0_16_97
*339 FILLER_0_17_109
*340 FILLER_0_17_121
*341 FILLER_0_17_133
*342 FILLER_0_17_137
*343 FILLER_0_17_139
*344 FILLER_0_17_15
*345 FILLER_0_17_151
*346 FILLER_0_17_163
*347 FILLER_0_17_175
*348 FILLER_0_17_187
*349 FILLER_0_17_193
*350 FILLER_0_17_195
*351 FILLER_0_17_207
*352 FILLER_0_17_219
*353 FILLER_0_17_231
*354 FILLER_0_17_243
*355 FILLER_0_17_249
*356 FILLER_0_17_251
*357 FILLER_0_17_263
*358 FILLER_0_17_27
*359 FILLER_0_17_275
*360 FILLER_0_17_287
*361 FILLER_0_17_299
*362 FILLER_0_17_3
*363 FILLER_0_17_305
*364 FILLER_0_17_307
*365 FILLER_0_17_319
*366 FILLER_0_17_85
*367 FILLER_0_17_97
*368 FILLER_0_18_109
*369 FILLER_0_18_111
*370 FILLER_0_18_123
*371 FILLER_0_18_135
*372 FILLER_0_18_147
*373 FILLER_0_18_15
*374 FILLER_0_18_159
*375 FILLER_0_18_165
*376 FILLER_0_18_167
*377 FILLER_0_18_179
*378 FILLER_0_18_191
*379 FILLER_0_18_203
*380 FILLER_0_18_215
*381 FILLER_0_18_221
*382 FILLER_0_18_223
*383 FILLER_0_18_235
*384 FILLER_0_18_247
*385 FILLER_0_18_259
*386 FILLER_0_18_27
*387 FILLER_0_18_271
*388 FILLER_0_18_277
*389 FILLER_0_18_279
*390 FILLER_0_18_29
*391 FILLER_0_18_291
*392 FILLER_0_18_3
*393 FILLER_0_18_303
*394 FILLER_0_18_315
*395 FILLER_0_18_85
*396 FILLER_0_18_97
*397 FILLER_0_19_109
*398 FILLER_0_19_121
*399 FILLER_0_19_133
*400 FILLER_0_19_137
*401 FILLER_0_19_139
*402 FILLER_0_19_15
*403 FILLER_0_19_151
*404 FILLER_0_19_166
*405 FILLER_0_19_178
*406 FILLER_0_19_190
*407 FILLER_0_19_195
*408 FILLER_0_19_207
*409 FILLER_0_19_219
*410 FILLER_0_19_231
*411 FILLER_0_19_243
*412 FILLER_0_19_249
*413 FILLER_0_19_251
*414 FILLER_0_19_263
*415 FILLER_0_19_27
*416 FILLER_0_19_275
*417 FILLER_0_19_287
*418 FILLER_0_19_299
*419 FILLER_0_19_3
*420 FILLER_0_19_305
*421 FILLER_0_19_307
*422 FILLER_0_19_319
*423 FILLER_0_19_85
*424 FILLER_0_19_97
*425 FILLER_0_1_105
*426 FILLER_0_1_111
*427 FILLER_0_1_113
*428 FILLER_0_1_125
*429 FILLER_0_1_137
*430 FILLER_0_1_149
*431 FILLER_0_1_15
*432 FILLER_0_1_161
*433 FILLER_0_1_167
*434 FILLER_0_1_169
*435 FILLER_0_1_181
*436 FILLER_0_1_193
*437 FILLER_0_1_205
*438 FILLER_0_1_217
*439 FILLER_0_1_223
*440 FILLER_0_1_225
*441 FILLER_0_1_237
*442 FILLER_0_1_249
*443 FILLER_0_1_261
*444 FILLER_0_1_27
*445 FILLER_0_1_273
*446 FILLER_0_1_279
*447 FILLER_0_1_281
*448 FILLER_0_1_293
*449 FILLER_0_1_3
*450 FILLER_0_1_305
*451 FILLER_0_1_317
*452 FILLER_0_1_325
*453 FILLER_0_1_39
*454 FILLER_0_1_51
*455 FILLER_0_1_55
*456 FILLER_0_1_57
*457 FILLER_0_1_69
*458 FILLER_0_1_81
*459 FILLER_0_1_93
*460 FILLER_0_20_109
*461 FILLER_0_20_111
*462 FILLER_0_20_123
*463 FILLER_0_20_135
*464 FILLER_0_20_147
*465 FILLER_0_20_15
*466 FILLER_0_20_159
*467 FILLER_0_20_165
*468 FILLER_0_20_167
*469 FILLER_0_20_179
*470 FILLER_0_20_191
*471 FILLER_0_20_203
*472 FILLER_0_20_215
*473 FILLER_0_20_221
*474 FILLER_0_20_223
*475 FILLER_0_20_235
*476 FILLER_0_20_247
*477 FILLER_0_20_259
*478 FILLER_0_20_27
*479 FILLER_0_20_271
*480 FILLER_0_20_277
*481 FILLER_0_20_279
*482 FILLER_0_20_29
*483 FILLER_0_20_291
*484 FILLER_0_20_3
*485 FILLER_0_20_303
*486 FILLER_0_20_315
*487 FILLER_0_20_85
*488 FILLER_0_20_97
*489 FILLER_0_21_109
*490 FILLER_0_21_121
*491 FILLER_0_21_133
*492 FILLER_0_21_137
*493 FILLER_0_21_139
*494 FILLER_0_21_15
*495 FILLER_0_21_151
*496 FILLER_0_21_163
*497 FILLER_0_21_175
*498 FILLER_0_21_187
*499 FILLER_0_21_193
*500 FILLER_0_21_195
*501 FILLER_0_21_207
*502 FILLER_0_21_219
*503 FILLER_0_21_231
*504 FILLER_0_21_243
*505 FILLER_0_21_249
*506 FILLER_0_21_251
*507 FILLER_0_21_263
*508 FILLER_0_21_27
*509 FILLER_0_21_275
*510 FILLER_0_21_287
*511 FILLER_0_21_299
*512 FILLER_0_21_3
*513 FILLER_0_21_305
*514 FILLER_0_21_307
*515 FILLER_0_21_319
*516 FILLER_0_21_85
*517 FILLER_0_21_97
*518 FILLER_0_22_109
*519 FILLER_0_22_111
*520 FILLER_0_22_123
*521 FILLER_0_22_135
*522 FILLER_0_22_147
*523 FILLER_0_22_15
*524 FILLER_0_22_159
*525 FILLER_0_22_167
*526 FILLER_0_22_179
*527 FILLER_0_22_191
*528 FILLER_0_22_203
*529 FILLER_0_22_215
*530 FILLER_0_22_221
*531 FILLER_0_22_223
*532 FILLER_0_22_235
*533 FILLER_0_22_247
*534 FILLER_0_22_259
*535 FILLER_0_22_27
*536 FILLER_0_22_271
*537 FILLER_0_22_277
*538 FILLER_0_22_279
*539 FILLER_0_22_29
*540 FILLER_0_22_291
*541 FILLER_0_22_3
*542 FILLER_0_22_303
*543 FILLER_0_22_315
*544 FILLER_0_22_85
*545 FILLER_0_22_97
*546 FILLER_0_23_109
*547 FILLER_0_23_113
*548 FILLER_0_23_125
*549 FILLER_0_23_137
*550 FILLER_0_23_141
*551 FILLER_0_23_15
*552 FILLER_0_23_153
*553 FILLER_0_23_165
*554 FILLER_0_23_169
*555 FILLER_0_23_181
*556 FILLER_0_23_193
*557 FILLER_0_23_197
*558 FILLER_0_23_209
*559 FILLER_0_23_221
*560 FILLER_0_23_225
*561 FILLER_0_23_237
*562 FILLER_0_23_249
*563 FILLER_0_23_253
*564 FILLER_0_23_265
*565 FILLER_0_23_27
*566 FILLER_0_23_277
*567 FILLER_0_23_281
*568 FILLER_0_23_29
*569 FILLER_0_23_293
*570 FILLER_0_23_3
*571 FILLER_0_23_305
*572 FILLER_0_23_309
*573 FILLER_0_23_321
*574 FILLER_0_23_41
*575 FILLER_0_23_53
*576 FILLER_0_23_57
*577 FILLER_0_23_69
*578 FILLER_0_23_81
*579 FILLER_0_23_85
*580 FILLER_0_23_97
*581 FILLER_0_24_109
*582 FILLER_0_24_121
*583 FILLER_0_24_133
*584 FILLER_0_24_139
*585 FILLER_0_24_141
*586 FILLER_0_24_15
*587 FILLER_0_24_153
*588 FILLER_0_24_165
*589 FILLER_0_24_177
*590 FILLER_0_24_189
*591 FILLER_0_24_195
*592 FILLER_0_24_197
*593 FILLER_0_24_209
*594 FILLER_0_24_221
*595 FILLER_0_24_233
*596 FILLER_0_24_245
*597 FILLER_0_24_251
*598 FILLER_0_24_253
*599 FILLER_0_24_265
*600 FILLER_0_24_27
*601 FILLER_0_24_277
*602 FILLER_0_24_289
*603 FILLER_0_24_29
*604 FILLER_0_24_3
*605 FILLER_0_24_301
*606 FILLER_0_24_307
*607 FILLER_0_24_309
*608 FILLER_0_24_321
*609 FILLER_0_24_41
*610 FILLER_0_24_53
*611 FILLER_0_24_65
*612 FILLER_0_24_77
*613 FILLER_0_24_83
*614 FILLER_0_24_85
*615 FILLER_0_24_97
*616 FILLER_0_25_105
*617 FILLER_0_25_111
*618 FILLER_0_25_113
*619 FILLER_0_25_125
*620 FILLER_0_25_137
*621 FILLER_0_25_149
*622 FILLER_0_25_15
*623 FILLER_0_25_161
*624 FILLER_0_25_167
*625 FILLER_0_25_169
*626 FILLER_0_25_181
*627 FILLER_0_25_193
*628 FILLER_0_25_205
*629 FILLER_0_25_217
*630 FILLER_0_25_223
*631 FILLER_0_25_225
*632 FILLER_0_25_237
*633 FILLER_0_25_249
*634 FILLER_0_25_261
*635 FILLER_0_25_27
*636 FILLER_0_25_273
*637 FILLER_0_25_279
*638 FILLER_0_25_281
*639 FILLER_0_25_293
*640 FILLER_0_25_3
*641 FILLER_0_25_305
*642 FILLER_0_25_317
*643 FILLER_0_25_325
*644 FILLER_0_25_39
*645 FILLER_0_25_51
*646 FILLER_0_25_55
*647 FILLER_0_25_57
*648 FILLER_0_25_69
*649 FILLER_0_25_81
*650 FILLER_0_25_93
*651 FILLER_0_26_109
*652 FILLER_0_26_121
*653 FILLER_0_26_133
*654 FILLER_0_26_139
*655 FILLER_0_26_141
*656 FILLER_0_26_15
*657 FILLER_0_26_153
*658 FILLER_0_26_165
*659 FILLER_0_26_177
*660 FILLER_0_26_189
*661 FILLER_0_26_195
*662 FILLER_0_26_197
*663 FILLER_0_26_209
*664 FILLER_0_26_221
*665 FILLER_0_26_233
*666 FILLER_0_26_245
*667 FILLER_0_26_251
*668 FILLER_0_26_253
*669 FILLER_0_26_265
*670 FILLER_0_26_27
*671 FILLER_0_26_277
*672 FILLER_0_26_289
*673 FILLER_0_26_29
*674 FILLER_0_26_3
*675 FILLER_0_26_301
*676 FILLER_0_26_307
*677 FILLER_0_26_309
*678 FILLER_0_26_321
*679 FILLER_0_26_41
*680 FILLER_0_26_53
*681 FILLER_0_26_65
*682 FILLER_0_26_77
*683 FILLER_0_26_83
*684 FILLER_0_26_85
*685 FILLER_0_26_97
*686 FILLER_0_27_105
*687 FILLER_0_27_111
*688 FILLER_0_27_113
*689 FILLER_0_27_125
*690 FILLER_0_27_137
*691 FILLER_0_27_149
*692 FILLER_0_27_15
*693 FILLER_0_27_161
*694 FILLER_0_27_167
*695 FILLER_0_27_169
*696 FILLER_0_27_181
*697 FILLER_0_27_193
*698 FILLER_0_27_205
*699 FILLER_0_27_217
*700 FILLER_0_27_223
*701 FILLER_0_27_225
*702 FILLER_0_27_237
*703 FILLER_0_27_249
*704 FILLER_0_27_261
*705 FILLER_0_27_27
*706 FILLER_0_27_273
*707 FILLER_0_27_279
*708 FILLER_0_27_281
*709 FILLER_0_27_293
*710 FILLER_0_27_3
*711 FILLER_0_27_305
*712 FILLER_0_27_317
*713 FILLER_0_27_325
*714 FILLER_0_27_39
*715 FILLER_0_27_51
*716 FILLER_0_27_55
*717 FILLER_0_27_57
*718 FILLER_0_27_69
*719 FILLER_0_27_81
*720 FILLER_0_27_93
*721 FILLER_0_28_109
*722 FILLER_0_28_121
*723 FILLER_0_28_133
*724 FILLER_0_28_139
*725 FILLER_0_28_141
*726 FILLER_0_28_15
*727 FILLER_0_28_153
*728 FILLER_0_28_165
*729 FILLER_0_28_177
*730 FILLER_0_28_189
*731 FILLER_0_28_195
*732 FILLER_0_28_197
*733 FILLER_0_28_209
*734 FILLER_0_28_221
*735 FILLER_0_28_233
*736 FILLER_0_28_245
*737 FILLER_0_28_251
*738 FILLER_0_28_253
*739 FILLER_0_28_265
*740 FILLER_0_28_27
*741 FILLER_0_28_277
*742 FILLER_0_28_289
*743 FILLER_0_28_29
*744 FILLER_0_28_3
*745 FILLER_0_28_301
*746 FILLER_0_28_307
*747 FILLER_0_28_309
*748 FILLER_0_28_321
*749 FILLER_0_28_41
*750 FILLER_0_28_53
*751 FILLER_0_28_65
*752 FILLER_0_28_77
*753 FILLER_0_28_83
*754 FILLER_0_28_85
*755 FILLER_0_28_97
*756 FILLER_0_29_105
*757 FILLER_0_29_111
*758 FILLER_0_29_113
*759 FILLER_0_29_125
*760 FILLER_0_29_137
*761 FILLER_0_29_149
*762 FILLER_0_29_15
*763 FILLER_0_29_161
*764 FILLER_0_29_167
*765 FILLER_0_29_169
*766 FILLER_0_29_181
*767 FILLER_0_29_193
*768 FILLER_0_29_205
*769 FILLER_0_29_217
*770 FILLER_0_29_223
*771 FILLER_0_29_225
*772 FILLER_0_29_237
*773 FILLER_0_29_249
*774 FILLER_0_29_261
*775 FILLER_0_29_27
*776 FILLER_0_29_273
*777 FILLER_0_29_279
*778 FILLER_0_29_281
*779 FILLER_0_29_293
*780 FILLER_0_29_3
*781 FILLER_0_29_305
*782 FILLER_0_29_317
*783 FILLER_0_29_325
*784 FILLER_0_29_39
*785 FILLER_0_29_51
*786 FILLER_0_29_55
*787 FILLER_0_29_57
*788 FILLER_0_29_69
*789 FILLER_0_29_81
*790 FILLER_0_29_93
*791 FILLER_0_2_109
*792 FILLER_0_2_121
*793 FILLER_0_2_133
*794 FILLER_0_2_139
*795 FILLER_0_2_141
*796 FILLER_0_2_15
*797 FILLER_0_2_153
*798 FILLER_0_2_165
*799 FILLER_0_2_177
*800 FILLER_0_2_189
*801 FILLER_0_2_195
*802 FILLER_0_2_197
*803 FILLER_0_2_209
*804 FILLER_0_2_221
*805 FILLER_0_2_233
*806 FILLER_0_2_245
*807 FILLER_0_2_251
*808 FILLER_0_2_253
*809 FILLER_0_2_265
*810 FILLER_0_2_27
*811 FILLER_0_2_277
*812 FILLER_0_2_289
*813 FILLER_0_2_29
*814 FILLER_0_2_3
*815 FILLER_0_2_301
*816 FILLER_0_2_307
*817 FILLER_0_2_309
*818 FILLER_0_2_321
*819 FILLER_0_2_41
*820 FILLER_0_2_53
*821 FILLER_0_2_65
*822 FILLER_0_2_77
*823 FILLER_0_2_83
*824 FILLER_0_2_85
*825 FILLER_0_2_97
*826 FILLER_0_30_109
*827 FILLER_0_30_121
*828 FILLER_0_30_133
*829 FILLER_0_30_139
*830 FILLER_0_30_141
*831 FILLER_0_30_15
*832 FILLER_0_30_153
*833 FILLER_0_30_165
*834 FILLER_0_30_177
*835 FILLER_0_30_189
*836 FILLER_0_30_195
*837 FILLER_0_30_197
*838 FILLER_0_30_209
*839 FILLER_0_30_221
*840 FILLER_0_30_233
*841 FILLER_0_30_245
*842 FILLER_0_30_251
*843 FILLER_0_30_253
*844 FILLER_0_30_265
*845 FILLER_0_30_27
*846 FILLER_0_30_277
*847 FILLER_0_30_289
*848 FILLER_0_30_29
*849 FILLER_0_30_3
*850 FILLER_0_30_301
*851 FILLER_0_30_307
*852 FILLER_0_30_309
*853 FILLER_0_30_321
*854 FILLER_0_30_41
*855 FILLER_0_30_53
*856 FILLER_0_30_65
*857 FILLER_0_30_77
*858 FILLER_0_30_83
*859 FILLER_0_30_85
*860 FILLER_0_30_97
*861 FILLER_0_31_105
*862 FILLER_0_31_111
*863 FILLER_0_31_113
*864 FILLER_0_31_125
*865 FILLER_0_31_137
*866 FILLER_0_31_149
*867 FILLER_0_31_15
*868 FILLER_0_31_161
*869 FILLER_0_31_167
*870 FILLER_0_31_169
*871 FILLER_0_31_181
*872 FILLER_0_31_193
*873 FILLER_0_31_205
*874 FILLER_0_31_217
*875 FILLER_0_31_223
*876 FILLER_0_31_225
*877 FILLER_0_31_237
*878 FILLER_0_31_249
*879 FILLER_0_31_261
*880 FILLER_0_31_27
*881 FILLER_0_31_273
*882 FILLER_0_31_279
*883 FILLER_0_31_281
*884 FILLER_0_31_293
*885 FILLER_0_31_3
*886 FILLER_0_31_305
*887 FILLER_0_31_317
*888 FILLER_0_31_325
*889 FILLER_0_31_39
*890 FILLER_0_31_51
*891 FILLER_0_31_55
*892 FILLER_0_31_57
*893 FILLER_0_31_69
*894 FILLER_0_31_81
*895 FILLER_0_31_93
*896 FILLER_0_32_109
*897 FILLER_0_32_121
*898 FILLER_0_32_133
*899 FILLER_0_32_139
*900 FILLER_0_32_141
*901 FILLER_0_32_15
*902 FILLER_0_32_153
*903 FILLER_0_32_165
*904 FILLER_0_32_177
*905 FILLER_0_32_189
*906 FILLER_0_32_195
*907 FILLER_0_32_197
*908 FILLER_0_32_209
*909 FILLER_0_32_221
*910 FILLER_0_32_233
*911 FILLER_0_32_245
*912 FILLER_0_32_251
*913 FILLER_0_32_253
*914 FILLER_0_32_265
*915 FILLER_0_32_27
*916 FILLER_0_32_277
*917 FILLER_0_32_289
*918 FILLER_0_32_29
*919 FILLER_0_32_3
*920 FILLER_0_32_301
*921 FILLER_0_32_307
*922 FILLER_0_32_309
*923 FILLER_0_32_321
*924 FILLER_0_32_41
*925 FILLER_0_32_53
*926 FILLER_0_32_65
*927 FILLER_0_32_77
*928 FILLER_0_32_83
*929 FILLER_0_32_85
*930 FILLER_0_32_97
*931 FILLER_0_33_105
*932 FILLER_0_33_111
*933 FILLER_0_33_113
*934 FILLER_0_33_125
*935 FILLER_0_33_137
*936 FILLER_0_33_149
*937 FILLER_0_33_15
*938 FILLER_0_33_161
*939 FILLER_0_33_167
*940 FILLER_0_33_169
*941 FILLER_0_33_181
*942 FILLER_0_33_193
*943 FILLER_0_33_205
*944 FILLER_0_33_217
*945 FILLER_0_33_223
*946 FILLER_0_33_225
*947 FILLER_0_33_237
*948 FILLER_0_33_249
*949 FILLER_0_33_261
*950 FILLER_0_33_27
*951 FILLER_0_33_273
*952 FILLER_0_33_279
*953 FILLER_0_33_281
*954 FILLER_0_33_293
*955 FILLER_0_33_3
*956 FILLER_0_33_305
*957 FILLER_0_33_317
*958 FILLER_0_33_325
*959 FILLER_0_33_39
*960 FILLER_0_33_51
*961 FILLER_0_33_55
*962 FILLER_0_33_57
*963 FILLER_0_33_69
*964 FILLER_0_33_81
*965 FILLER_0_33_93
*966 FILLER_0_34_109
*967 FILLER_0_34_121
*968 FILLER_0_34_133
*969 FILLER_0_34_139
*970 FILLER_0_34_141
*971 FILLER_0_34_15
*972 FILLER_0_34_153
*973 FILLER_0_34_165
*974 FILLER_0_34_177
*975 FILLER_0_34_189
*976 FILLER_0_34_195
*977 FILLER_0_34_197
*978 FILLER_0_34_209
*979 FILLER_0_34_221
*980 FILLER_0_34_233
*981 FILLER_0_34_245
*982 FILLER_0_34_251
*983 FILLER_0_34_253
*984 FILLER_0_34_265
*985 FILLER_0_34_27
*986 FILLER_0_34_277
*987 FILLER_0_34_289
*988 FILLER_0_34_29
*989 FILLER_0_34_3
*990 FILLER_0_34_301
*991 FILLER_0_34_307
*992 FILLER_0_34_309
*993 FILLER_0_34_321
*994 FILLER_0_34_41
*995 FILLER_0_34_53
*996 FILLER_0_34_65
*997 FILLER_0_34_77
*998 FILLER_0_34_83
*999 FILLER_0_34_85
*1000 FILLER_0_34_97
*1001 FILLER_0_35_105
*1002 FILLER_0_35_111
*1003 FILLER_0_35_113
*1004 FILLER_0_35_125
*1005 FILLER_0_35_137
*1006 FILLER_0_35_149
*1007 FILLER_0_35_15
*1008 FILLER_0_35_161
*1009 FILLER_0_35_167
*1010 FILLER_0_35_169
*1011 FILLER_0_35_181
*1012 FILLER_0_35_193
*1013 FILLER_0_35_205
*1014 FILLER_0_35_217
*1015 FILLER_0_35_223
*1016 FILLER_0_35_225
*1017 FILLER_0_35_237
*1018 FILLER_0_35_249
*1019 FILLER_0_35_261
*1020 FILLER_0_35_27
*1021 FILLER_0_35_273
*1022 FILLER_0_35_279
*1023 FILLER_0_35_281
*1024 FILLER_0_35_293
*1025 FILLER_0_35_3
*1026 FILLER_0_35_305
*1027 FILLER_0_35_317
*1028 FILLER_0_35_325
*1029 FILLER_0_35_39
*1030 FILLER_0_35_51
*1031 FILLER_0_35_55
*1032 FILLER_0_35_57
*1033 FILLER_0_35_69
*1034 FILLER_0_35_81
*1035 FILLER_0_35_93
*1036 FILLER_0_36_109
*1037 FILLER_0_36_121
*1038 FILLER_0_36_133
*1039 FILLER_0_36_139
*1040 FILLER_0_36_141
*1041 FILLER_0_36_15
*1042 FILLER_0_36_153
*1043 FILLER_0_36_165
*1044 FILLER_0_36_177
*1045 FILLER_0_36_189
*1046 FILLER_0_36_195
*1047 FILLER_0_36_197
*1048 FILLER_0_36_209
*1049 FILLER_0_36_221
*1050 FILLER_0_36_233
*1051 FILLER_0_36_245
*1052 FILLER_0_36_251
*1053 FILLER_0_36_253
*1054 FILLER_0_36_265
*1055 FILLER_0_36_27
*1056 FILLER_0_36_277
*1057 FILLER_0_36_289
*1058 FILLER_0_36_29
*1059 FILLER_0_36_3
*1060 FILLER_0_36_301
*1061 FILLER_0_36_307
*1062 FILLER_0_36_309
*1063 FILLER_0_36_321
*1064 FILLER_0_36_41
*1065 FILLER_0_36_53
*1066 FILLER_0_36_65
*1067 FILLER_0_36_77
*1068 FILLER_0_36_83
*1069 FILLER_0_36_85
*1070 FILLER_0_36_97
*1071 FILLER_0_37_104
*1072 FILLER_0_37_108
*1073 FILLER_0_37_116
*1074 FILLER_0_37_122
*1075 FILLER_0_37_126
*1076 FILLER_0_37_132
*1077 FILLER_0_37_138
*1078 FILLER_0_37_144
*1079 FILLER_0_37_15
*1080 FILLER_0_37_150
*1081 FILLER_0_37_156
*1082 FILLER_0_37_169
*1083 FILLER_0_37_181
*1084 FILLER_0_37_193
*1085 FILLER_0_37_205
*1086 FILLER_0_37_217
*1087 FILLER_0_37_223
*1088 FILLER_0_37_225
*1089 FILLER_0_37_237
*1090 FILLER_0_37_249
*1091 FILLER_0_37_261
*1092 FILLER_0_37_27
*1093 FILLER_0_37_273
*1094 FILLER_0_37_279
*1095 FILLER_0_37_281
*1096 FILLER_0_37_293
*1097 FILLER_0_37_3
*1098 FILLER_0_37_305
*1099 FILLER_0_37_317
*1100 FILLER_0_37_325
*1101 FILLER_0_37_39
*1102 FILLER_0_37_45
*1103 FILLER_0_37_49
*1104 FILLER_0_37_54
*1105 FILLER_0_37_60
*1106 FILLER_0_37_66
*1107 FILLER_0_37_72
*1108 FILLER_0_37_78
*1109 FILLER_0_37_84
*1110 FILLER_0_37_90
*1111 FILLER_0_37_96
*1112 FILLER_0_38_103
*1113 FILLER_0_38_120
*1114 FILLER_0_38_126
*1115 FILLER_0_38_132
*1116 FILLER_0_38_138
*1117 FILLER_0_38_145
*1118 FILLER_0_38_15
*1119 FILLER_0_38_151
*1120 FILLER_0_38_172
*1121 FILLER_0_38_183
*1122 FILLER_0_38_195
*1123 FILLER_0_38_197
*1124 FILLER_0_38_209
*1125 FILLER_0_38_221
*1126 FILLER_0_38_225
*1127 FILLER_0_38_237
*1128 FILLER_0_38_249
*1129 FILLER_0_38_253
*1130 FILLER_0_38_261
*1131 FILLER_0_38_27
*1132 FILLER_0_38_272
*1133 FILLER_0_38_278
*1134 FILLER_0_38_281
*1135 FILLER_0_38_29
*1136 FILLER_0_38_293
*1137 FILLER_0_38_3
*1138 FILLER_0_38_305
*1139 FILLER_0_38_309
*1140 FILLER_0_38_321
*1141 FILLER_0_38_37
*1142 FILLER_0_38_54
*1143 FILLER_0_38_61
*1144 FILLER_0_38_66
*1145 FILLER_0_38_72
*1146 FILLER_0_38_78
*1147 FILLER_0_38_85
*1148 FILLER_0_38_90
*1149 FILLER_0_3_105
*1150 FILLER_0_3_111
*1151 FILLER_0_3_113
*1152 FILLER_0_3_125
*1153 FILLER_0_3_137
*1154 FILLER_0_3_149
*1155 FILLER_0_3_15
*1156 FILLER_0_3_161
*1157 FILLER_0_3_167
*1158 FILLER_0_3_169
*1159 FILLER_0_3_181
*1160 FILLER_0_3_193
*1161 FILLER_0_3_205
*1162 FILLER_0_3_217
*1163 FILLER_0_3_223
*1164 FILLER_0_3_225
*1165 FILLER_0_3_237
*1166 FILLER_0_3_249
*1167 FILLER_0_3_261
*1168 FILLER_0_3_27
*1169 FILLER_0_3_273
*1170 FILLER_0_3_279
*1171 FILLER_0_3_281
*1172 FILLER_0_3_293
*1173 FILLER_0_3_3
*1174 FILLER_0_3_305
*1175 FILLER_0_3_317
*1176 FILLER_0_3_325
*1177 FILLER_0_3_39
*1178 FILLER_0_3_51
*1179 FILLER_0_3_55
*1180 FILLER_0_3_57
*1181 FILLER_0_3_69
*1182 FILLER_0_3_81
*1183 FILLER_0_3_93
*1184 FILLER_0_4_109
*1185 FILLER_0_4_121
*1186 FILLER_0_4_133
*1187 FILLER_0_4_139
*1188 FILLER_0_4_141
*1189 FILLER_0_4_15
*1190 FILLER_0_4_153
*1191 FILLER_0_4_165
*1192 FILLER_0_4_177
*1193 FILLER_0_4_189
*1194 FILLER_0_4_195
*1195 FILLER_0_4_197
*1196 FILLER_0_4_209
*1197 FILLER_0_4_221
*1198 FILLER_0_4_233
*1199 FILLER_0_4_245
*1200 FILLER_0_4_251
*1201 FILLER_0_4_253
*1202 FILLER_0_4_265
*1203 FILLER_0_4_27
*1204 FILLER_0_4_277
*1205 FILLER_0_4_289
*1206 FILLER_0_4_29
*1207 FILLER_0_4_3
*1208 FILLER_0_4_301
*1209 FILLER_0_4_307
*1210 FILLER_0_4_309
*1211 FILLER_0_4_321
*1212 FILLER_0_4_41
*1213 FILLER_0_4_53
*1214 FILLER_0_4_65
*1215 FILLER_0_4_77
*1216 FILLER_0_4_83
*1217 FILLER_0_4_85
*1218 FILLER_0_4_97
*1219 FILLER_0_5_105
*1220 FILLER_0_5_111
*1221 FILLER_0_5_113
*1222 FILLER_0_5_125
*1223 FILLER_0_5_137
*1224 FILLER_0_5_149
*1225 FILLER_0_5_15
*1226 FILLER_0_5_161
*1227 FILLER_0_5_167
*1228 FILLER_0_5_169
*1229 FILLER_0_5_181
*1230 FILLER_0_5_193
*1231 FILLER_0_5_205
*1232 FILLER_0_5_217
*1233 FILLER_0_5_223
*1234 FILLER_0_5_225
*1235 FILLER_0_5_237
*1236 FILLER_0_5_249
*1237 FILLER_0_5_261
*1238 FILLER_0_5_27
*1239 FILLER_0_5_273
*1240 FILLER_0_5_279
*1241 FILLER_0_5_281
*1242 FILLER_0_5_293
*1243 FILLER_0_5_3
*1244 FILLER_0_5_305
*1245 FILLER_0_5_317
*1246 FILLER_0_5_325
*1247 FILLER_0_5_39
*1248 FILLER_0_5_51
*1249 FILLER_0_5_55
*1250 FILLER_0_5_57
*1251 FILLER_0_5_69
*1252 FILLER_0_5_81
*1253 FILLER_0_5_93
*1254 FILLER_0_6_109
*1255 FILLER_0_6_121
*1256 FILLER_0_6_133
*1257 FILLER_0_6_139
*1258 FILLER_0_6_141
*1259 FILLER_0_6_15
*1260 FILLER_0_6_153
*1261 FILLER_0_6_165
*1262 FILLER_0_6_177
*1263 FILLER_0_6_189
*1264 FILLER_0_6_195
*1265 FILLER_0_6_197
*1266 FILLER_0_6_209
*1267 FILLER_0_6_221
*1268 FILLER_0_6_233
*1269 FILLER_0_6_245
*1270 FILLER_0_6_251
*1271 FILLER_0_6_253
*1272 FILLER_0_6_265
*1273 FILLER_0_6_27
*1274 FILLER_0_6_277
*1275 FILLER_0_6_289
*1276 FILLER_0_6_29
*1277 FILLER_0_6_3
*1278 FILLER_0_6_301
*1279 FILLER_0_6_307
*1280 FILLER_0_6_309
*1281 FILLER_0_6_321
*1282 FILLER_0_6_41
*1283 FILLER_0_6_53
*1284 FILLER_0_6_65
*1285 FILLER_0_6_77
*1286 FILLER_0_6_83
*1287 FILLER_0_6_85
*1288 FILLER_0_6_97
*1289 FILLER_0_7_105
*1290 FILLER_0_7_111
*1291 FILLER_0_7_113
*1292 FILLER_0_7_125
*1293 FILLER_0_7_137
*1294 FILLER_0_7_149
*1295 FILLER_0_7_15
*1296 FILLER_0_7_161
*1297 FILLER_0_7_167
*1298 FILLER_0_7_169
*1299 FILLER_0_7_181
*1300 FILLER_0_7_193
*1301 FILLER_0_7_205
*1302 FILLER_0_7_217
*1303 FILLER_0_7_223
*1304 FILLER_0_7_225
*1305 FILLER_0_7_237
*1306 FILLER_0_7_249
*1307 FILLER_0_7_261
*1308 FILLER_0_7_27
*1309 FILLER_0_7_273
*1310 FILLER_0_7_279
*1311 FILLER_0_7_281
*1312 FILLER_0_7_293
*1313 FILLER_0_7_3
*1314 FILLER_0_7_305
*1315 FILLER_0_7_317
*1316 FILLER_0_7_325
*1317 FILLER_0_7_39
*1318 FILLER_0_7_51
*1319 FILLER_0_7_55
*1320 FILLER_0_7_57
*1321 FILLER_0_7_69
*1322 FILLER_0_7_81
*1323 FILLER_0_7_93
*1324 FILLER_0_8_109
*1325 FILLER_0_8_113
*1326 FILLER_0_8_125
*1327 FILLER_0_8_137
*1328 FILLER_0_8_141
*1329 FILLER_0_8_15
*1330 FILLER_0_8_153
*1331 FILLER_0_8_165
*1332 FILLER_0_8_169
*1333 FILLER_0_8_181
*1334 FILLER_0_8_193
*1335 FILLER_0_8_197
*1336 FILLER_0_8_209
*1337 FILLER_0_8_221
*1338 FILLER_0_8_225
*1339 FILLER_0_8_237
*1340 FILLER_0_8_249
*1341 FILLER_0_8_253
*1342 FILLER_0_8_265
*1343 FILLER_0_8_27
*1344 FILLER_0_8_277
*1345 FILLER_0_8_281
*1346 FILLER_0_8_29
*1347 FILLER_0_8_293
*1348 FILLER_0_8_3
*1349 FILLER_0_8_305
*1350 FILLER_0_8_309
*1351 FILLER_0_8_321
*1352 FILLER_0_8_41
*1353 FILLER_0_8_53
*1354 FILLER_0_8_57
*1355 FILLER_0_8_69
*1356 FILLER_0_8_81
*1357 FILLER_0_8_85
*1358 FILLER_0_8_97
*1359 FILLER_0_9_100
*1360 FILLER_0_9_112
*1361 FILLER_0_9_116
*1362 FILLER_0_9_118
*1363 FILLER_0_9_130
*1364 FILLER_0_9_142
*1365 FILLER_0_9_15
*1366 FILLER_0_9_154
*1367 FILLER_0_9_166
*1368 FILLER_0_9_172
*1369 FILLER_0_9_174
*1370 FILLER_0_9_186
*1371 FILLER_0_9_198
*1372 FILLER_0_9_210
*1373 FILLER_0_9_222
*1374 FILLER_0_9_228
*1375 FILLER_0_9_230
*1376 FILLER_0_9_242
*1377 FILLER_0_9_254
*1378 FILLER_0_9_266
*1379 FILLER_0_9_27
*1380 FILLER_0_9_278
*1381 FILLER_0_9_284
*1382 FILLER_0_9_286
*1383 FILLER_0_9_298
*1384 FILLER_0_9_3
*1385 FILLER_0_9_310
*1386 FILLER_0_9_322
*1387 FILLER_0_9_326
*1388 FILLER_0_9_64
*1389 FILLER_0_9_76
*1390 FILLER_0_9_88
*1391 PHY_EDGE_ROW_0_Left_39
*1392 PHY_EDGE_ROW_0_Right_0
*1393 PHY_EDGE_ROW_10_1_Left_48
*1394 PHY_EDGE_ROW_10_1_Right_85
*1395 PHY_EDGE_ROW_10_2_Left_79
*1396 PHY_EDGE_ROW_10_2_Right_27
*1397 PHY_EDGE_ROW_11_1_Left_49
*1398 PHY_EDGE_ROW_11_1_Right_86
*1399 PHY_EDGE_ROW_11_2_Left_80
*1400 PHY_EDGE_ROW_11_2_Right_28
*1401 PHY_EDGE_ROW_12_1_Left_50
*1402 PHY_EDGE_ROW_12_1_Right_87
*1403 PHY_EDGE_ROW_12_2_Left_81
*1404 PHY_EDGE_ROW_12_2_Right_29
*1405 PHY_EDGE_ROW_13_1_Left_51
*1406 PHY_EDGE_ROW_13_1_Right_88
*1407 PHY_EDGE_ROW_13_2_Left_82
*1408 PHY_EDGE_ROW_13_2_Right_30
*1409 PHY_EDGE_ROW_14_1_Left_52
*1410 PHY_EDGE_ROW_14_1_Right_89
*1411 PHY_EDGE_ROW_14_2_Left_83
*1412 PHY_EDGE_ROW_14_2_Right_31
*1413 PHY_EDGE_ROW_15_1_Left_53
*1414 PHY_EDGE_ROW_15_1_Right_90
*1415 PHY_EDGE_ROW_15_2_Left_84
*1416 PHY_EDGE_ROW_15_2_Right_32
*1417 PHY_EDGE_ROW_16_Left_55
*1418 PHY_EDGE_ROW_16_Right_9
*1419 PHY_EDGE_ROW_17_1_Left_54
*1420 PHY_EDGE_ROW_17_1_Right_98
*1421 PHY_EDGE_ROW_17_2_Left_92
*1422 PHY_EDGE_ROW_17_2_Right_33
*1423 PHY_EDGE_ROW_18_1_Left_56
*1424 PHY_EDGE_ROW_18_1_Right_99
*1425 PHY_EDGE_ROW_18_2_Left_93
*1426 PHY_EDGE_ROW_18_2_Right_34
*1427 PHY_EDGE_ROW_19_1_Left_57
*1428 PHY_EDGE_ROW_19_1_Right_100
*1429 PHY_EDGE_ROW_19_2_Left_94
*1430 PHY_EDGE_ROW_19_2_Right_35
*1431 PHY_EDGE_ROW_1_Left_40
*1432 PHY_EDGE_ROW_1_Right_1
*1433 PHY_EDGE_ROW_20_1_Left_58
*1434 PHY_EDGE_ROW_20_1_Right_101
*1435 PHY_EDGE_ROW_20_2_Left_95
*1436 PHY_EDGE_ROW_20_2_Right_36
*1437 PHY_EDGE_ROW_21_1_Left_59
*1438 PHY_EDGE_ROW_21_1_Right_102