*SPEF "ieee 1481-1999"
*DESIGN "tt_um_urish_skullfet"
*DATE "11:11:11 Fri 11 11, 1111"
*VENDOR "OpenRCX"
*PROGRAM "Parallel Extraction"
*VERSION "1.0"
*DESIGN_FLOW "NAME_SCOPE LOCAL" "PIN_CAP NONE"
*DIVIDER /
*DELIMITER :
*BUS_DELIMITER []
*T_UNIT 1 NS
*C_UNIT 1 PF
*R_UNIT 1 OHM
*L_UNIT 1 HENRY

*NAME_MAP
*3 clk
*4 ena
*5 rst_n
*6 ui_in[0]
*7 ui_in[1]
*8 ui_in[2]
*9 ui_in[3]
*10 ui_in[4]
*11 ui_in[5]
*12 ui_in[6]
*13 ui_in[7]
*14 uio_in[0]
*15 uio_in[1]
*16 uio_in[2]
*17 uio_in[3]
*18 uio_in[4]
*19 uio_in[5]
*20 uio_in[6]
*21 uio_in[7]
*22 uio_oe[0]
*23 uio_oe[1]
*24 uio_oe[2]
*25 uio_oe[3]
*26 uio_oe[4]
*27 uio_oe[5]
*28 uio_oe[6]
*29 uio_oe[7]
*30 uio_out[0]
*31 uio_out[1]
*32 uio_out[2]
*33 uio_out[3]
*34 uio_out[4]
*35 uio_out[5]
*36 uio_out[6]
*37 uio_out[7]
*38 uo_out[0]
*39 uo_out[1]
*40 uo_out[2]
*41 uo_out[3]
*42 uo_out[4]
*43 uo_out[5]
*44 uo_out[6]
*45 uo_out[7]
*46 ff1\.q
*47 ff1\.q_bar
*48 inv1_out
*49 nand1_out
*50 net1
*51 net10
*52 net11
*53 net12
*54 net13
*55 net14
*56 net15
*57 net16
*58 net17
*59 net18
*60 net19
*61 net2
*62 net20
*63 net21
*64 net22
*65 net23
*66 net24
*67 net25
*68 net26
*69 net27
*70 net28
*71 net3
*72 net4
*73 net5
*74 net6
*75 net7
*76 net8
*77 net9
*78 FILLER_0_0_15
*79 FILLER_0_0_257
*80 FILLER_0_0_269
*81 FILLER_0_0_27
*82 FILLER_0_0_281
*83 FILLER_0_0_283
*84 FILLER_0_0_29
*85 FILLER_0_0_295
*86 FILLER_0_0_3
*87 FILLER_0_0_307
*88 FILLER_0_0_311
*89 FILLER_0_0_323
*90 FILLER_0_0_41
*91 FILLER_0_0_53
*92 FILLER_0_0_57
*93 FILLER_0_0_69
*94 FILLER_0_10_111
*95 FILLER_0_10_15
*96 FILLER_0_10_169
*97 FILLER_0_10_181
*98 FILLER_0_10_193
*99 FILLER_0_10_195
*100 FILLER_0_10_207
*101 FILLER_0_10_219
*102 FILLER_0_10_231
*103 FILLER_0_10_243
*104 FILLER_0_10_249
*105 FILLER_0_10_251
*106 FILLER_0_10_263
*107 FILLER_0_10_27
*108 FILLER_0_10_275
*109 FILLER_0_10_287
*110 FILLER_0_10_29
*111 FILLER_0_10_299
*112 FILLER_0_10_3
*113 FILLER_0_10_305
*114 FILLER_0_10_307
*115 FILLER_0_10_319
*116 FILLER_0_10_61
*117 FILLER_0_10_73
*118 FILLER_0_10_85
*119 FILLER_0_10_87
*120 FILLER_0_10_99
*121 FILLER_0_11_109
*122 FILLER_0_11_113
*123 FILLER_0_11_115
*124 FILLER_0_11_15
*125 FILLER_0_11_169
*126 FILLER_0_11_181
*127 FILLER_0_11_193
*128 FILLER_0_11_205
*129 FILLER_0_11_217
*130 FILLER_0_11_221
*131 FILLER_0_11_223
*132 FILLER_0_11_235
*133 FILLER_0_11_247
*134 FILLER_0_11_259
*135 FILLER_0_11_27
*136 FILLER_0_11_271
*137 FILLER_0_11_277
*138 FILLER_0_11_279
*139 FILLER_0_11_291
*140 FILLER_0_11_3
*141 FILLER_0_11_303
*142 FILLER_0_11_31
*143 FILLER_0_11_315
*144 FILLER_0_11_61
*145 FILLER_0_11_73
*146 FILLER_0_11_85
*147 FILLER_0_11_97
*148 FILLER_0_12_111
*149 FILLER_0_12_15
*150 FILLER_0_12_169
*151 FILLER_0_12_181
*152 FILLER_0_12_193
*153 FILLER_0_12_195
*154 FILLER_0_12_207
*155 FILLER_0_12_219
*156 FILLER_0_12_231
*157 FILLER_0_12_243
*158 FILLER_0_12_249
*159 FILLER_0_12_251
*160 FILLER_0_12_263
*161 FILLER_0_12_27
*162 FILLER_0_12_275
*163 FILLER_0_12_287
*164 FILLER_0_12_29
*165 FILLER_0_12_299
*166 FILLER_0_12_3
*167 FILLER_0_12_305
*168 FILLER_0_12_307
*169 FILLER_0_12_319
*170 FILLER_0_12_61
*171 FILLER_0_12_73
*172 FILLER_0_12_85
*173 FILLER_0_12_87
*174 FILLER_0_12_99
*175 FILLER_0_13_109
*176 FILLER_0_13_113
*177 FILLER_0_13_115
*178 FILLER_0_13_15
*179 FILLER_0_13_169
*180 FILLER_0_13_181
*181 FILLER_0_13_193
*182 FILLER_0_13_205
*183 FILLER_0_13_217
*184 FILLER_0_13_221
*185 FILLER_0_13_223
*186 FILLER_0_13_235
*187 FILLER_0_13_247
*188 FILLER_0_13_259
*189 FILLER_0_13_27
*190 FILLER_0_13_271
*191 FILLER_0_13_277
*192 FILLER_0_13_279
*193 FILLER_0_13_291
*194 FILLER_0_13_3
*195 FILLER_0_13_303
*196 FILLER_0_13_31
*197 FILLER_0_13_315
*198 FILLER_0_13_61
*199 FILLER_0_13_73
*200 FILLER_0_13_85
*201 FILLER_0_13_97
*202 FILLER_0_14_111
*203 FILLER_0_14_15
*204 FILLER_0_14_169
*205 FILLER_0_14_181
*206 FILLER_0_14_193
*207 FILLER_0_14_195
*208 FILLER_0_14_207
*209 FILLER_0_14_219
*210 FILLER_0_14_231
*211 FILLER_0_14_243
*212 FILLER_0_14_249
*213 FILLER_0_14_251
*214 FILLER_0_14_263
*215 FILLER_0_14_27
*216 FILLER_0_14_275
*217 FILLER_0_14_287
*218 FILLER_0_14_29
*219 FILLER_0_14_299
*220 FILLER_0_14_3
*221 FILLER_0_14_305
*222 FILLER_0_14_307
*223 FILLER_0_14_319
*224 FILLER_0_14_61
*225 FILLER_0_14_73
*226 FILLER_0_14_85
*227 FILLER_0_14_87
*228 FILLER_0_14_99
*229 FILLER_0_15_109
*230 FILLER_0_15_113
*231 FILLER_0_15_115
*232 FILLER_0_15_15
*233 FILLER_0_15_172
*234 FILLER_0_15_184
*235 FILLER_0_15_196
*236 FILLER_0_15_208
*237 FILLER_0_15_220
*238 FILLER_0_15_223
*239 FILLER_0_15_235
*240 FILLER_0_15_247
*241 FILLER_0_15_259
*242 FILLER_0_15_27
*243 FILLER_0_15_271
*244 FILLER_0_15_277
*245 FILLER_0_15_279
*246 FILLER_0_15_291
*247 FILLER_0_15_3
*248 FILLER_0_15_303
*249 FILLER_0_15_31
*250 FILLER_0_15_315
*251 FILLER_0_15_61
*252 FILLER_0_15_73
*253 FILLER_0_15_85
*254 FILLER_0_15_97
*255 FILLER_0_16_109
*256 FILLER_0_16_113
*257 FILLER_0_16_125
*258 FILLER_0_16_137
*259 FILLER_0_16_141
*260 FILLER_0_16_15
*261 FILLER_0_16_153
*262 FILLER_0_16_165
*263 FILLER_0_16_169
*264 FILLER_0_16_181
*265 FILLER_0_16_193
*266 FILLER_0_16_197
*267 FILLER_0_16_209
*268 FILLER_0_16_221
*269 FILLER_0_16_225
*270 FILLER_0_16_237
*271 FILLER_0_16_249
*272 FILLER_0_16_253
*273 FILLER_0_16_265
*274 FILLER_0_16_27
*275 FILLER_0_16_277
*276 FILLER_0_16_281
*277 FILLER_0_16_29
*278 FILLER_0_16_293
*279 FILLER_0_16_3
*280 FILLER_0_16_305
*281 FILLER_0_16_309
*282 FILLER_0_16_321
*283 FILLER_0_16_41
*284 FILLER_0_16_53
*285 FILLER_0_16_57
*286 FILLER_0_16_69
*287 FILLER_0_16_81
*288 FILLER_0_16_85
*289 FILLER_0_16_97
*290 FILLER_0_17_105
*291 FILLER_0_17_111
*292 FILLER_0_17_113
*293 FILLER_0_17_125
*294 FILLER_0_17_137
*295 FILLER_0_17_149
*296 FILLER_0_17_15
*297 FILLER_0_17_161
*298 FILLER_0_17_167
*299 FILLER_0_17_169
*300 FILLER_0_17_181
*301 FILLER_0_17_193
*302 FILLER_0_17_205
*303 FILLER_0_17_217
*304 FILLER_0_17_223
*305 FILLER_0_17_225
*306 FILLER_0_17_237
*307 FILLER_0_17_249
*308 FILLER_0_17_261
*309 FILLER_0_17_27
*310 FILLER_0_17_273
*311 FILLER_0_17_279
*312 FILLER_0_17_281
*313 FILLER_0_17_293
*314 FILLER_0_17_3
*315 FILLER_0_17_305
*316 FILLER_0_17_317
*317 FILLER_0_17_325
*318 FILLER_0_17_39
*319 FILLER_0_17_51
*320 FILLER_0_17_55
*321 FILLER_0_17_57
*322 FILLER_0_17_69
*323 FILLER_0_17_81
*324 FILLER_0_17_93
*325 FILLER_0_18_109
*326 FILLER_0_18_121
*327 FILLER_0_18_133
*328 FILLER_0_18_139
*329 FILLER_0_18_141
*330 FILLER_0_18_15
*331 FILLER_0_18_153
*332 FILLER_0_18_165
*333 FILLER_0_18_177
*334 FILLER_0_18_189
*335 FILLER_0_18_195
*336 FILLER_0_18_197
*337 FILLER_0_18_209
*338 FILLER_0_18_221
*339 FILLER_0_18_233
*340 FILLER_0_18_245
*341 FILLER_0_18_251
*342 FILLER_0_18_253
*343 FILLER_0_18_265
*344 FILLER_0_18_27
*345 FILLER_0_18_277
*346 FILLER_0_18_289
*347 FILLER_0_18_29
*348 FILLER_0_18_3
*349 FILLER_0_18_301
*350 FILLER_0_18_307
*351 FILLER_0_18_309
*352 FILLER_0_18_321
*353 FILLER_0_18_41
*354 FILLER_0_18_53
*355 FILLER_0_18_65
*356 FILLER_0_18_77
*357 FILLER_0_18_83
*358 FILLER_0_18_85
*359 FILLER_0_18_97
*360 FILLER_0_19_105
*361 FILLER_0_19_111
*362 FILLER_0_19_113
*363 FILLER_0_19_125
*364 FILLER_0_19_137
*365 FILLER_0_19_149
*366 FILLER_0_19_15
*367 FILLER_0_19_161
*368 FILLER_0_19_167
*369 FILLER_0_19_169
*370 FILLER_0_19_181
*371 FILLER_0_19_193
*372 FILLER_0_19_205
*373 FILLER_0_19_217
*374 FILLER_0_19_223
*375 FILLER_0_19_225
*376 FILLER_0_19_237
*377 FILLER_0_19_249
*378 FILLER_0_19_261
*379 FILLER_0_19_27
*380 FILLER_0_19_273
*381 FILLER_0_19_279
*382 FILLER_0_19_281
*383 FILLER_0_19_293
*384 FILLER_0_19_3
*385 FILLER_0_19_305
*386 FILLER_0_19_317
*387 FILLER_0_19_325
*388 FILLER_0_19_39
*389 FILLER_0_19_51
*390 FILLER_0_19_55
*391 FILLER_0_19_57
*392 FILLER_0_19_69
*393 FILLER_0_19_81
*394 FILLER_0_19_93
*395 FILLER_0_1_15
*396 FILLER_0_1_257
*397 FILLER_0_1_269
*398 FILLER_0_1_27
*399 FILLER_0_1_281
*400 FILLER_0_1_293
*401 FILLER_0_1_3
*402 FILLER_0_1_305
*403 FILLER_0_1_309
*404 FILLER_0_1_311
*405 FILLER_0_1_323
*406 FILLER_0_1_39
*407 FILLER_0_1_51
*408 FILLER_0_1_55
*409 FILLER_0_1_57
*410 FILLER_0_1_69
*411 FILLER_0_20_109
*412 FILLER_0_20_113
*413 FILLER_0_20_125
*414 FILLER_0_20_137
*415 FILLER_0_20_141
*416 FILLER_0_20_15
*417 FILLER_0_20_153
*418 FILLER_0_20_165
*419 FILLER_0_20_169
*420 FILLER_0_20_181
*421 FILLER_0_20_193
*422 FILLER_0_20_197
*423 FILLER_0_20_209
*424 FILLER_0_20_221
*425 FILLER_0_20_225
*426 FILLER_0_20_237
*427 FILLER_0_20_249
*428 FILLER_0_20_253
*429 FILLER_0_20_265
*430 FILLER_0_20_27
*431 FILLER_0_20_277
*432 FILLER_0_20_281
*433 FILLER_0_20_29
*434 FILLER_0_20_293
*435 FILLER_0_20_3
*436 FILLER_0_20_305
*437 FILLER_0_20_309
*438 FILLER_0_20_321
*439 FILLER_0_20_41
*440 FILLER_0_20_53
*441 FILLER_0_20_57
*442 FILLER_0_20_69
*443 FILLER_0_20_81
*444 FILLER_0_20_85
*445 FILLER_0_20_97
*446 FILLER_0_21_106
*447 FILLER_0_21_118
*448 FILLER_0_21_15
*449 FILLER_0_21_169
*450 FILLER_0_21_181
*451 FILLER_0_21_193
*452 FILLER_0_21_205
*453 FILLER_0_21_217
*454 FILLER_0_21_221
*455 FILLER_0_21_223
*456 FILLER_0_21_235
*457 FILLER_0_21_247
*458 FILLER_0_21_259
*459 FILLER_0_21_27
*460 FILLER_0_21_271
*461 FILLER_0_21_277
*462 FILLER_0_21_279
*463 FILLER_0_21_291
*464 FILLER_0_21_3
*465 FILLER_0_21_303
*466 FILLER_0_21_31
*467 FILLER_0_21_315
*468 FILLER_0_21_82
*469 FILLER_0_21_94
*470 FILLER_0_22_106
*471 FILLER_0_22_108
*472 FILLER_0_22_116
*473 FILLER_0_22_15
*474 FILLER_0_22_169
*475 FILLER_0_22_181
*476 FILLER_0_22_193
*477 FILLER_0_22_195
*478 FILLER_0_22_207
*479 FILLER_0_22_219
*480 FILLER_0_22_231
*481 FILLER_0_22_243
*482 FILLER_0_22_249
*483 FILLER_0_22_251
*484 FILLER_0_22_263
*485 FILLER_0_22_27
*486 FILLER_0_22_275
*487 FILLER_0_22_287
*488 FILLER_0_22_29
*489 FILLER_0_22_299
*490 FILLER_0_22_3
*491 FILLER_0_22_305
*492 FILLER_0_22_307
*493 FILLER_0_22_319
*494 FILLER_0_22_82
*495 FILLER_0_22_94
*496 FILLER_0_23_106
*497 FILLER_0_23_118
*498 FILLER_0_23_15
*499 FILLER_0_23_169
*500 FILLER_0_23_181
*501 FILLER_0_23_193
*502 FILLER_0_23_205
*503 FILLER_0_23_217
*504 FILLER_0_23_221
*505 FILLER_0_23_223
*506 FILLER_0_23_235
*507 FILLER_0_23_247
*508 FILLER_0_23_259
*509 FILLER_0_23_27
*510 FILLER_0_23_271
*511 FILLER_0_23_277
*512 FILLER_0_23_279
*513 FILLER_0_23_291
*514 FILLER_0_23_3
*515 FILLER_0_23_303
*516 FILLER_0_23_31
*517 FILLER_0_23_315
*518 FILLER_0_23_82
*519 FILLER_0_23_94
*520 FILLER_0_24_106
*521 FILLER_0_24_108
*522 FILLER_0_24_116
*523 FILLER_0_24_15
*524 FILLER_0_24_169
*525 FILLER_0_24_181
*526 FILLER_0_24_193
*527 FILLER_0_24_195
*528 FILLER_0_24_207
*529 FILLER_0_24_219
*530 FILLER_0_24_231
*531 FILLER_0_24_243
*532 FILLER_0_24_249
*533 FILLER_0_24_251
*534 FILLER_0_24_263
*535 FILLER_0_24_27
*536 FILLER_0_24_275
*537 FILLER_0_24_287
*538 FILLER_0_24_29
*539 FILLER_0_24_299
*540 FILLER_0_24_3
*541 FILLER_0_24_305
*542 FILLER_0_24_307
*543 FILLER_0_24_319
*544 FILLER_0_24_82
*545 FILLER_0_24_94
*546 FILLER_0_25_106
*547 FILLER_0_25_118
*548 FILLER_0_25_15
*549 FILLER_0_25_169
*550 FILLER_0_25_181
*551 FILLER_0_25_193
*552 FILLER_0_25_205
*553 FILLER_0_25_217
*554 FILLER_0_25_221
*555 FILLER_0_25_223
*556 FILLER_0_25_235
*557 FILLER_0_25_247
*558 FILLER_0_25_259
*559 FILLER_0_25_27
*560 FILLER_0_25_271
*561 FILLER_0_25_277
*562 FILLER_0_25_279
*563 FILLER_0_25_291
*564 FILLER_0_25_3
*565 FILLER_0_25_303
*566 FILLER_0_25_31
*567 FILLER_0_25_315
*568 FILLER_0_25_82
*569 FILLER_0_25_94
*570 FILLER_0_26_106
*571 FILLER_0_26_108
*572 FILLER_0_26_116
*573 FILLER_0_26_15
*574 FILLER_0_26_172
*575 FILLER_0_26_184
*576 FILLER_0_26_192
*577 FILLER_0_26_195
*578 FILLER_0_26_207
*579 FILLER_0_26_219
*580 FILLER_0_26_231
*581 FILLER_0_26_243
*582 FILLER_0_26_249
*583 FILLER_0_26_251
*584 FILLER_0_26_263
*585 FILLER_0_26_27
*586 FILLER_0_26_275
*587 FILLER_0_26_287
*588 FILLER_0_26_29
*589 FILLER_0_26_299
*590 FILLER_0_26_3
*591 FILLER_0_26_305
*592 FILLER_0_26_307
*593 FILLER_0_26_319
*594 FILLER_0_26_82
*595 FILLER_0_26_94
*596 FILLER_0_27_106
*597 FILLER_0_27_118
*598 FILLER_0_27_15
*599 FILLER_0_27_169
*600 FILLER_0_27_181
*601 FILLER_0_27_193
*602 FILLER_0_27_205
*603 FILLER_0_27_217
*604 FILLER_0_27_221
*605 FILLER_0_27_223
*606 FILLER_0_27_235
*607 FILLER_0_27_247
*608 FILLER_0_27_259
*609 FILLER_0_27_27
*610 FILLER_0_27_271
*611 FILLER_0_27_277
*612 FILLER_0_27_279
*613 FILLER_0_27_291
*614 FILLER_0_27_3
*615 FILLER_0_27_303
*616 FILLER_0_27_31
*617 FILLER_0_27_315
*618 FILLER_0_27_82
*619 FILLER_0_27_94
*620 FILLER_0_28_109
*621 FILLER_0_28_113
*622 FILLER_0_28_125
*623 FILLER_0_28_137
*624 FILLER_0_28_141
*625 FILLER_0_28_15
*626 FILLER_0_28_153
*627 FILLER_0_28_160
*628 FILLER_0_28_165
*629 FILLER_0_28_169
*630 FILLER_0_28_181
*631 FILLER_0_28_193
*632 FILLER_0_28_197
*633 FILLER_0_28_209
*634 FILLER_0_28_221
*635 FILLER_0_28_225
*636 FILLER_0_28_237
*637 FILLER_0_28_249
*638 FILLER_0_28_253
*639 FILLER_0_28_265
*640 FILLER_0_28_27
*641 FILLER_0_28_277
*642 FILLER_0_28_281
*643 FILLER_0_28_29
*644 FILLER_0_28_293
*645 FILLER_0_28_3
*646 FILLER_0_28_305
*647 FILLER_0_28_309
*648 FILLER_0_28_321
*649 FILLER_0_28_41
*650 FILLER_0_28_53
*651 FILLER_0_28_57
*652 FILLER_0_28_69
*653 FILLER_0_28_81
*654 FILLER_0_28_85
*655 FILLER_0_28_97
*656 FILLER_0_29_105
*657 FILLER_0_29_111
*658 FILLER_0_29_113
*659 FILLER_0_29_125
*660 FILLER_0_29_137
*661 FILLER_0_29_149
*662 FILLER_0_29_15
*663 FILLER_0_29_161
*664 FILLER_0_29_167
*665 FILLER_0_29_169
*666 FILLER_0_29_181
*667 FILLER_0_29_193
*668 FILLER_0_29_205
*669 FILLER_0_29_217
*670 FILLER_0_29_223
*671 FILLER_0_29_225
*672 FILLER_0_29_237
*673 FILLER_0_29_249
*674 FILLER_0_29_261
*675 FILLER_0_29_27
*676 FILLER_0_29_273
*677 FILLER_0_29_279
*678 FILLER_0_29_281
*679 FILLER_0_29_293
*680 FILLER_0_29_3
*681 FILLER_0_29_305
*682 FILLER_0_29_317
*683 FILLER_0_29_325
*684 FILLER_0_29_39
*685 FILLER_0_29_51
*686 FILLER_0_29_55
*687 FILLER_0_29_57
*688 FILLER_0_29_69
*689 FILLER_0_29_81
*690 FILLER_0_29_93
*691 FILLER_0_2_109
*692 FILLER_0_2_113
*693 FILLER_0_2_125
*694 FILLER_0_2_137
*695 FILLER_0_2_141
*696 FILLER_0_2_15
*697 FILLER_0_2_153
*698 FILLER_0_2_165
*699 FILLER_0_2_169
*700 FILLER_0_2_181
*701 FILLER_0_2_193
*702 FILLER_0_2_197
*703 FILLER_0_2_209
*704 FILLER_0_2_221
*705 FILLER_0_2_225
*706 FILLER_0_2_237
*707 FILLER_0_2_249
*708 FILLER_0_2_253
*709 FILLER_0_2_265
*710 FILLER_0_2_27
*711 FILLER_0_2_277
*712 FILLER_0_2_281
*713 FILLER_0_2_29
*714 FILLER_0_2_293
*715 FILLER_0_2_3
*716 FILLER_0_2_305
*717 FILLER_0_2_309
*718 FILLER_0_2_321
*719 FILLER_0_2_41
*720 FILLER_0_2_53
*721 FILLER_0_2_57
*722 FILLER_0_2_69
*723 FILLER_0_2_81
*724 FILLER_0_2_85
*725 FILLER_0_2_97
*726 FILLER_0_30_104
*727 FILLER_0_30_108
*728 FILLER_0_30_114
*729 FILLER_0_30_126
*730 FILLER_0_30_132
*731 FILLER_0_30_138
*732 FILLER_0_30_144
*733 FILLER_0_30_15
*734 FILLER_0_30_156
*735 FILLER_0_30_168
*736 FILLER_0_30_180
*737 FILLER_0_30_192
*738 FILLER_0_30_197
*739 FILLER_0_30_209
*740 FILLER_0_30_221
*741 FILLER_0_30_233
*742 FILLER_0_30_245
*743 FILLER_0_30_251
*744 FILLER_0_30_253
*745 FILLER_0_30_265
*746 FILLER_0_30_27
*747 FILLER_0_30_277
*748 FILLER_0_30_289
*749 FILLER_0_30_29
*750 FILLER_0_30_3
*751 FILLER_0_30_301
*752 FILLER_0_30_307
*753 FILLER_0_30_309
*754 FILLER_0_30_321
*755 FILLER_0_30_41
*756 FILLER_0_30_50
*757 FILLER_0_30_55
*758 FILLER_0_30_60
*759 FILLER_0_30_66
*760 FILLER_0_30_72
*761 FILLER_0_30_78
*762 FILLER_0_30_85
*763 FILLER_0_30_90
*764 FILLER_0_30_96
*765 FILLER_0_31_103
*766 FILLER_0_31_127
*767 FILLER_0_31_15
*768 FILLER_0_31_155
*769 FILLER_0_31_165
*770 FILLER_0_31_183
*771 FILLER_0_31_195
*772 FILLER_0_31_197
*773 FILLER_0_31_209
*774 FILLER_0_31_221
*775 FILLER_0_31_225
*776 FILLER_0_31_237
*777 FILLER_0_31_249
*778 FILLER_0_31_253
*779 FILLER_0_31_260
*780 FILLER_0_31_266
*781 FILLER_0_31_27
*782 FILLER_0_31_272
*783 FILLER_0_31_278
*784 FILLER_0_31_281
*785 FILLER_0_31_29
*786 FILLER_0_31_293
*787 FILLER_0_31_3
*788 FILLER_0_31_305
*789 FILLER_0_31_309
*790 FILLER_0_31_321
*791 FILLER_0_31_37
*792 FILLER_0_31_55
*793 FILLER_0_31_61
*794 FILLER_0_31_67
*795 FILLER_0_31_73
*796 FILLER_0_31_79
*797 FILLER_0_31_85
*798 FILLER_0_31_90
*799 FILLER_0_3_105
*800 FILLER_0_3_111
*801 FILLER_0_3_113
*802 FILLER_0_3_125
*803 FILLER_0_3_137
*804 FILLER_0_3_149
*805 FILLER_0_3_15
*806 FILLER_0_3_161
*807 FILLER_0_3_167
*808 FILLER_0_3_169
*809 FILLER_0_3_181
*810 FILLER_0_3_193
*811 FILLER_0_3_205
*812 FILLER_0_3_217
*813 FILLER_0_3_223
*814 FILLER_0_3_225
*815 FILLER_0_3_237
*816 FILLER_0_3_249
*817 FILLER_0_3_261
*818 FILLER_0_3_27
*819 FILLER_0_3_273
*820 FILLER_0_3_279
*821 FILLER_0_3_281
*822 FILLER_0_3_293
*823 FILLER_0_3_3
*824 FILLER_0_3_305
*825 FILLER_0_3_317
*826 FILLER_0_3_325
*827 FILLER_0_3_39
*828 FILLER_0_3_51
*829 FILLER_0_3_55
*830 FILLER_0_3_57
*831 FILLER_0_3_69
*832 FILLER_0_3_81
*833 FILLER_0_3_93
*834 FILLER_0_4_109
*835 FILLER_0_4_121
*836 FILLER_0_4_133
*837 FILLER_0_4_139
*838 FILLER_0_4_141
*839 FILLER_0_4_15
*840 FILLER_0_4_153
*841 FILLER_0_4_165
*842 FILLER_0_4_177
*843 FILLER_0_4_189
*844 FILLER_0_4_195
*845 FILLER_0_4_197
*846 FILLER_0_4_209
*847 FILLER_0_4_221
*848 FILLER_0_4_233
*849 FILLER_0_4_245
*850 FILLER_0_4_251
*851 FILLER_0_4_253
*852 FILLER_0_4_265
*853 FILLER_0_4_27
*854 FILLER_0_4_277
*855 FILLER_0_4_289
*856 FILLER_0_4_29
*857 FILLER_0_4_3
*858 FILLER_0_4_301
*859 FILLER_0_4_307
*860 FILLER_0_4_309
*861 FILLER_0_4_321
*862 FILLER_0_4_41
*863 FILLER_0_4_53
*864 FILLER_0_4_65
*865 FILLER_0_4_77
*866 FILLER_0_4_83
*867 FILLER_0_4_85
*868 FILLER_0_4_97
*869 FILLER_0_5_105
*870 FILLER_0_5_111
*871 FILLER_0_5_113
*872 FILLER_0_5_125
*873 FILLER_0_5_137
*874 FILLER_0_5_149
*875 FILLER_0_5_15
*876 FILLER_0_5_161
*877 FILLER_0_5_167
*878 FILLER_0_5_169
*879 FILLER_0_5_181
*880 FILLER_0_5_193
*881 FILLER_0_5_205
*882 FILLER_0_5_217
*883 FILLER_0_5_223
*884 FILLER_0_5_225
*885 FILLER_0_5_237
*886 FILLER_0_5_249
*887 FILLER_0_5_261
*888 FILLER_0_5_27
*889 FILLER_0_5_273
*890 FILLER_0_5_279
*891 FILLER_0_5_281
*892 FILLER_0_5_293
*893 FILLER_0_5_3
*894 FILLER_0_5_305
*895 FILLER_0_5_317
*896 FILLER_0_5_325
*897 FILLER_0_5_39
*898 FILLER_0_5_51
*899 FILLER_0_5_55
*900 FILLER_0_5_57
*901 FILLER_0_5_69
*902 FILLER_0_5_81
*903 FILLER_0_5_93
*904 FILLER_0_6_109
*905 FILLER_0_6_121
*906 FILLER_0_6_133
*907 FILLER_0_6_139
*908 FILLER_0_6_141
*909 FILLER_0_6_15
*910 FILLER_0_6_153
*911 FILLER_0_6_165
*912 FILLER_0_6_177
*913 FILLER_0_6_189
*914 FILLER_0_6_195
*915 FILLER_0_6_197
*916 FILLER_0_6_209
*917 FILLER_0_6_221
*918 FILLER_0_6_233
*919 FILLER_0_6_245
*920 FILLER_0_6_251
*921 FILLER_0_6_253
*922 FILLER_0_6_265
*923 FILLER_0_6_27
*924 FILLER_0_6_277
*925 FILLER_0_6_289
*926 FILLER_0_6_29
*927 FILLER_0_6_3
*928 FILLER_0_6_301
*929 FILLER_0_6_307
*930 FILLER_0_6_309
*931 FILLER_0_6_321
*932 FILLER_0_6_41
*933 FILLER_0_6_53
*934 FILLER_0_6_65
*935 FILLER_0_6_77
*936 FILLER_0_6_83
*937 FILLER_0_6_85
*938 FILLER_0_6_97
*939 FILLER_0_7_105
*940 FILLER_0_7_111
*941 FILLER_0_7_113
*942 FILLER_0_7_125
*943 FILLER_0_7_137
*944 FILLER_0_7_149
*945 FILLER_0_7_15
*946 FILLER_0_7_161
*947 FILLER_0_7_167
*948 FILLER_0_7_169
*949 FILLER_0_7_181
*950 FILLER_0_7_193
*951 FILLER_0_7_205
*952 FILLER_0_7_217
*953 FILLER_0_7_223
*954 FILLER_0_7_225
*955 FILLER_0_7_237
*956 FILLER_0_7_249
*957 FILLER_0_7_261
*958 FILLER_0_7_27
*959 FILLER_0_7_273
*960 FILLER_0_7_279
*961 FILLER_0_7_281
*962 FILLER_0_7_293
*963 FILLER_0_7_3
*964 FILLER_0_7_305
*965 FILLER_0_7_317
*966 FILLER_0_7_325
*967 FILLER_0_7_39
*968 FILLER_0_7_51
*969 FILLER_0_7_55
*970 FILLER_0_7_57
*971 FILLER_0_7_69
*972 FILLER_0_7_81
*973 FILLER_0_7_93
*974 FILLER_0_8_109
*975 FILLER_0_8_121
*976 FILLER_0_8_133
*977 FILLER_0_8_139
*978 FILLER_0_8_141
*979 FILLER_0_8_15
*980 FILLER_0_8_153
*981 FILLER_0_8_165
*982 FILLER_0_8_177
*983 FILLER_0_8_189
*984 FILLER_0_8_195
*985 FILLER_0_8_197
*986 FILLER_0_8_209
*987 FILLER_0_8_221
*988 FILLER_0_8_233
*989 FILLER_0_8_245
*990 FILLER_0_8_251
*991 FILLER_0_8_253
*992 FILLER_0_8_265
*993 FILLER_0_8_27
*994 FILLER_0_8_277
*995 FILLER_0_8_289
*996 FILLER_0_8_29
*997 FILLER_0_8_3
*998 FILLER_0_8_301
*999 FILLER_0_8_307
*1000 FILLER_0_8_309
*1001 FILLER_0_8_321
*1002 FILLER_0_8_41
*1003 FILLER_0_8_53
*1004 FILLER_0_8_65
*1005 FILLER_0_8_77
*1006 FILLER_0_8_83
*1007 FILLER_0_8_85
*1008 FILLER_0_8_97
*1009 FILLER_0_9_109
*1010 FILLER_0_9_113
*1011 FILLER_0_9_125
*1012 FILLER_0_9_137
*1013 FILLER_0_9_141
*1014 FILLER_0_9_15
*1015 FILLER_0_9_153
*1016 FILLER_0_9_165
*1017 FILLER_0_9_169
*1018 FILLER_0_9_181
*1019 FILLER_0_9_193
*1020 FILLER_0_9_197
*1021 FILLER_0_9_209
*1022 FILLER_0_9_221
*1023 FILLER_0_9_225
*1024 FILLER_0_9_237
*1025 FILLER_0_9_249
*1026 FILLER_0_9_253
*1027 FILLER_0_9_265
*1028 FILLER_0_9_27
*1029 FILLER_0_9_277
*1030 FILLER_0_9_281
*1031 FILLER_0_9_29
*1032 FILLER_0_9_293
*1033 FILLER_0_9_3
*1034 FILLER_0_9_305
*1035 FILLER_0_9_309
*1036 FILLER_0_9_321
*1037 FILLER_0_9_41
*1038 FILLER_0_9_53
*1039 FILLER_0_9_57
*1040 FILLER_0_9_69
*1041 FILLER_0_9_81
*1042 FILLER_0_9_85
*1043 FILLER_0_9_97
*1044 PHY_EDGE_ROW_0_1_Left_67
*1045 PHY_EDGE_ROW_0_1_Right_1
*1046 PHY_EDGE_ROW_0_2_Left_2
*1047 PHY_EDGE_ROW_0_2_Right_21
*1048 PHY_EDGE_ROW_10_1_Left_37
*1049 PHY_EDGE_ROW_10_1_Right_74
*1050 PHY_EDGE_ROW_10_2_Left_68
*1051 PHY_EDGE_ROW_10_2_Right_86
*1052 PHY_EDGE_ROW_10_3_Left_80
*1053 PHY_EDGE_ROW_10_3_Right_23
*1054 PHY_EDGE_ROW_11_1_Left_46
*1055 PHY_EDGE_ROW_11_1_Right_75
*1056 PHY_EDGE_ROW_11_2_Left_69
*1057 PHY_EDGE_ROW_11_2_Right_87
*1058 PHY_EDGE_ROW_11_3_Left_81
*1059 PHY_EDGE_ROW_11_3_Right_24
*1060 PHY_EDGE_ROW_12_1_Left_47
*1061 PHY_EDGE_ROW_12_1_Right_76
*1062 PHY_EDGE_ROW_12_2_Left_70
*1063 PHY_EDGE_ROW_12_2_Right_88
*1064 PHY_EDGE_ROW_12_3_Left_82
*1065 PHY_EDGE_ROW_12_3_Right_25
*1066 PHY_EDGE_ROW_13_1_Left_48
*1067 PHY_EDGE_ROW_13_1_Right_77
*1068 PHY_EDGE_ROW_13_2_Left_71
*1069 PHY_EDGE_ROW_13_2_Right_89
*1070 PHY_EDGE_ROW_13_3_Left_83
*1071 PHY_EDGE_ROW_13_3_Right_26
*1072 PHY_EDGE_ROW_14_1_Left_49
*1073 PHY_EDGE_ROW_14_1_Right_78
*1074 PHY_EDGE_ROW_14_2_Left_72
*1075 PHY_EDGE_ROW_14_2_Right_90
*1076 PHY_EDGE_ROW_14_3_Left_84
*1077 PHY_EDGE_ROW_14_3_Right_27
*1078 PHY_EDGE_ROW_15_1_Left_50
*1079 PHY_EDGE_ROW_15_1_Right_79
*1080 PHY_EDGE_ROW_15_2_Left_73
*1081 PHY_EDGE_ROW_15_2_Right_91
*1082 PHY_EDGE_ROW_15_3_Left_85
*1083 PHY_EDGE_ROW_15_3_Right_28
*1084 PHY_EDGE_ROW_16_Left_52
*1085 PHY_EDGE_ROW_16_Right_12
*1086 PHY_EDGE_ROW_17_Left_53
*1087 PHY_EDGE_ROW_17_Right_13
*1088 PHY_EDGE_ROW_18_Left_54
*1089 PHY_EDGE_ROW_18_Right_14
*1090 PHY_EDGE_ROW_19_Left_55
*1091 PHY_EDGE_ROW_19_Right_15
*1092 PHY_EDGE_ROW_1_1_Left_36
*1093 PHY_EDGE_ROW_1_1_Right_0
*1094 PHY_EDGE_ROW_1_2_Left_3
*1095 PHY_EDGE_ROW_1_2_Right_22
*1096 PHY_EDGE_ROW_20_Left_56
*1097 PHY_EDGE_ROW_20_Right_16
*1098 PHY_EDGE_ROW_21_1_Left_51
*1099 PHY_EDGE_ROW_21_1_Right_99
*1100 PHY_EDGE_ROW_21_2_Left_92
*1101 PHY_EDGE_ROW_21_2_Right_113
*1102 PHY_EDGE_ROW_21_3_Left_106
*1103 PHY_EDGE_ROW_21_3_Right_29
*1104 PHY_EDGE_ROW_22_1_Left_57
*1105 PHY_EDGE_ROW_22_1_Right_100
*1106 PHY_EDGE_ROW_22_2_Left_93
*1107 PHY_EDGE_ROW_22_2_Right_114
*1108 PHY_EDGE_ROW_22_3_Left_107
*1109 PHY_EDGE_ROW_22_3_Right_30
*1110 PHY_EDGE_ROW_23_1_Left_58
*1111 PHY_EDGE_ROW_23_1_Right_101
*1112 PHY_EDGE_ROW_23_2_Left_94
*1113 PHY_EDGE_ROW_23_2_Right_115
*1114 PHY_EDGE_ROW_23_3_Left_108
*1115 PHY_EDGE_ROW_23_3_Right_31
*1116 PHY_EDGE_ROW_24_1_Left_59
*1117 PHY_EDGE_ROW_24_1_Right_102
*1118 PHY_EDGE_ROW_24_2_Left_95
*1119 PHY_EDGE_ROW_24_2_Right_116
*1120 PHY_EDGE_ROW_24_3_Left_109
*1121 PHY_EDGE_ROW_24_3_Right_32
*1122 PHY_EDGE_ROW_25_1_Left_60
*1123 PHY_EDGE_ROW_25_1_Right_103
*1124 PHY_EDGE_ROW_25_2_Left_96
*1125 PHY_EDGE_ROW_25_2_Right_117
*1126 PHY_EDGE_ROW_25_3_Left_110
*1127 PHY_EDGE_ROW_25_3_Right_33
*1128 PHY_EDGE_ROW_26_1_Left_61
*1129 PHY_EDGE_ROW_26_1_Right_104
*1130 PHY_EDGE_ROW_26_2_Left_97
*1131 PHY_EDGE_ROW_26_2_Right_118
*1132 PHY_EDGE_ROW_26_3_Left_111
*1133 PHY_EDGE_ROW_26_3_Right_34
*1134 PHY_EDGE_ROW_27_1_Left_62
*1135 PHY_EDGE_ROW_27_1_Right_105
*1136 PHY_EDGE_ROW_27_2_Left_98
*1137 PHY_EDGE_ROW_27_2_Right_119
*1138 PHY_EDGE_ROW_27_3_Left_112
*1139 PHY_EDGE_ROW_27_3_Right_35
*1140 PHY_EDGE_ROW_28_Left_63
*1141 PHY_EDGE_ROW_28_Right_17
*1142 PHY_EDGE_ROW_29_Left_64
*1143 PHY_EDGE_ROW_29_Right_18
*1144 PHY_EDGE_ROW_2_Left_38
*1145 PHY_EDGE_ROW_2_Right_4
*1146 PHY_EDGE_ROW_30_Left_65
*1147 PHY_EDGE_ROW_30_Right_19
*1148 PHY_EDGE_ROW_31_Left_66
*1149 PHY_EDGE_ROW_31_Right_20
*1150 PHY_EDGE_ROW_3_Left_39
*1151 PHY_EDGE_ROW_3_Right_5
*1152 PHY_EDGE_ROW_4_Left_40
*1153 PHY_EDGE_ROW_4_Right_6
*1154 PHY_EDGE_ROW_5_Left_41
*1155 PHY_EDGE_ROW_5_Right_7
*1156 PHY_EDGE_ROW_6_Left_42
*1157 PHY_EDGE_ROW_6_Right_8
*1158 PHY_EDGE_ROW_7_Left_43
*1159 PHY_EDGE_ROW_7_Right_9
*1160 PHY_EDGE_ROW_8_Left_44
*1161 PHY_EDGE_ROW_8_Right_10
*1162 PHY_EDGE_ROW_9_Left_45
*1163 PHY_EDGE_ROW_9_Right_11
*1164 TAP_TAPCELL_ROW_0_1_253
*1165 TAP_TAPCELL_ROW_0_1_254
*1166 TAP_TAPCELL_ROW_0_2_255
*1167 TAP_TAPCELL_ROW_0_2_256
*1168 TAP_TAPCELL_ROW_10_1_121
*1169 TAP_TAPCELL_ROW_10_2_258
*1170 TAP_TAPCELL_ROW_10_3_259
*1171 TAP_TAPCELL_ROW_10_3_260
*1172 TAP_TAPCELL_ROW_10_3_261
*1173 TAP_TAPCELL_ROW_11_2_262
*1174 TAP_TAPCELL_ROW_11_3_263
*1175 TAP_TAPCELL_ROW_11_3_264
*1176 TAP_TAPCELL_ROW_12_1_177
*1177 TAP_TAPCELL_ROW_12_2_265
*1178 TAP_TAPCELL_ROW_12_3_266
*1179 TAP_TAPCELL_ROW_12_3_267
*1180 TAP_TAPCELL_ROW_12_3_268
*1181 TAP_TAPCELL_ROW_13_2_269
*1182 TAP_TAPCELL_ROW_13_3_270
*1183 TAP_TAPCELL_ROW_13_3_271
*1184 TAP_TAPCELL_ROW_14_1_178
*1185 TAP_TAPCELL_ROW_14_2_272
*1186 TAP_TAPCELL_ROW_14_3_273
*1187 TAP_TAPCELL_ROW_14_3_274
*1188 TAP_TAPCELL_ROW_14_3_275
*1189 TAP_TAPCELL_ROW_15_2_276
*1190 TAP_TAPCELL_ROW_15_3_277
*1191 TAP_TAPCELL_ROW_15_3_278
*1192 TAP_TAPCELL_ROW_16_179
*1193 TAP_TAPCELL_ROW_16_180
*1194 TAP_TAPCELL_ROW_16_181
*1195 TAP_TAPCELL_ROW_16_182
*1196 TAP_TAPCELL_ROW_16_183
*1197 TAP_TAPCELL_ROW_16_184
*1198 TAP_TAPCELL_ROW_16_185
*1199 TAP_TAPCELL_ROW_16_186
*1200 TAP_TAPCELL_ROW_16_187
*1201 TAP_TAPCELL_ROW_16_188
*1202 TAP_TAPCELL_ROW_16_189
*1203 TAP_TAPCELL_ROW_17_190
*1204 TAP_TAPCELL_ROW_17_191
*1205 TAP_TAPCELL_ROW_17_192
*1206 TAP_TAPCELL_ROW_17_193
*1207 TAP_TAPCELL_ROW_17_194
*1208 TAP_TAPCELL_ROW_18_195
*1209 TAP_TAPCELL_ROW_18_196
*1210 TAP_TAPCELL_ROW_18_197
*1211 TAP_TAPCELL_ROW_18_198
*1212 TAP_TAPCELL_ROW_18_199
*1213 TAP_TAPCELL_ROW_18_200
*1214 TAP_TAPCELL_ROW_19_201
*1215 TAP_TAPCELL_ROW_19_202
*1216 TAP_TAPCELL_ROW_19_203
*1217 TAP_TAPCELL_ROW_19_204
*1218 TAP_TAPCELL_ROW_19_205
*1219 TAP_TAPCELL_ROW_1_1_120
*1220 TAP_TAPCELL_ROW_1_2_257
*1221 TAP_TAPCELL_ROW_20_206
*1222 TAP_TAPCELL_ROW_20_207
*1223 TAP_TAPCELL_ROW_20_208
*1224 TAP_TAPCELL_ROW_20_209
*1225 TAP_TAPCELL_ROW_20_210
*1226 TAP_TAPCELL_ROW_20_211
*1227 TAP_TAPCELL_ROW_20_212
*1228 TAP_TAPCELL_ROW_20_213
*1229 TAP_TAPCELL_ROW_20_214
*1230 TAP_TAPCELL_ROW_20_215
*1231 TAP_TAPCELL_ROW_20_216
*1232 TAP_TAPCELL_ROW_21_3_279
*1233 TAP_TAPCELL_ROW_21_3_280
*1234 TAP_TAPCELL_ROW_22_1_217
*1235 TAP_TAPCELL_ROW_22_2_281
*1236 TAP_TAPCELL_ROW_22_3_282
*1237 TAP_TAPCELL_ROW_22_3_283
*1238 TAP_TAPCELL_ROW_22_3_284
*1239 TAP_TAPCELL_ROW_23_3_285
*1240 TAP_TAPCELL_ROW_23_3_286
*1241 TAP_TAPCELL_ROW_24_1_218
*1242 TAP_TAPCELL_ROW_24_2_287
*1243 TAP_TAPCELL_ROW_24_3_288
*1244 TAP_TAPCELL_ROW_24_3_289
*1245 TAP_TAPCELL_ROW_24_3_290
*1246 TAP_TAPCELL_ROW_25_3_291
*1247 TAP_TAPCELL_ROW_25_3_292
*1248 TAP_TAPCELL_ROW_26_1_219
*1249 TAP_TAPCELL_ROW_26_2_293
*1250 TAP_TAPCELL_ROW_26_3_294
*1251 TAP_TAPCELL_ROW_26_3_295
*1252 TAP_TAPCELL_ROW_26_3_296
*1253 TAP_TAPCELL_ROW_27_3_297
*1254 TAP_TAPCELL_ROW_27_3_298
*1255 TAP_TAPCELL_ROW_28_220
*1256 TAP_TAPCELL_ROW_28_221
*1257 TAP_TAPCELL_ROW_28_222
*1258 TAP_TAPCELL_ROW_28_223
*1259 TAP_TAPCELL_ROW_28_224
*1260 TAP_TAPCELL_ROW_28_225
*1261 TAP_TAPCELL_ROW_28_226
*1262 TAP_TAPCELL_ROW_28_227
*1263 TAP_TAPCELL_ROW_28_228
*1264 TAP_TAPCELL_ROW_28_229
*1265 TAP_TAPCELL_ROW_28_230
*1266 TAP_TAPCELL_ROW_29_231
*1267 TAP_TAPCELL_ROW_29_232
*1268 TAP_TAPCELL_ROW_29_233
*1269 TAP_TAPCELL_ROW_29_234
*1270 TAP_TAPCELL_ROW_29_235
*1271 TAP_TAPCELL_ROW_2_122
*1272 TAP_TAPCELL_ROW_2_123
*1273 TAP_TAPCELL_ROW_2_124
*1274 TAP_TAPCELL_ROW_2_125
*1275 TAP_TAPCELL_ROW_2_126
*1276 TAP_TAPCELL_ROW_2_127
*1277 TAP_TAPCELL_ROW_2_128
*1278 TAP_TAPCELL_ROW_2_129
*1279 TAP_TAPCELL_ROW_2_130
*1280 TAP_TAPCELL_ROW_2_131
*1281 TAP_TAPCELL_ROW_2_132
*1282 TAP_TAPCELL_ROW_30_236
*1283 TAP_TAPCELL_ROW_30_237
*1284 TAP_TAPCELL_ROW_30_238
*1285 TAP_TAPCELL_ROW_30_239
*1286 TAP_TAPCELL_ROW_30_240
*1287 TAP_TAPCELL_ROW_30_241
*1288 TAP_TAPCELL_ROW_31_242
*1289 TAP_TAPCELL_ROW_31_243
*1290 TAP_TAPCELL_ROW_31_244
*1291 TAP_TAPCELL_ROW_31_245
*1292 TAP_TAPCELL_ROW_31_246
*1293 TAP_TAPCELL_ROW_31_247
*1294 TAP_TAPCELL_ROW_31_248
*1295 TAP_TAPCELL_ROW_31_249
*1296 TAP_TAPCELL_ROW_31_250
*1297 TAP_TAPCELL_ROW_31_251
*1298 TAP_TAPCELL_ROW_31_252
*1299 TAP_TAPCELL_ROW_3_133
*1300 TAP_TAPCELL_ROW_3_134
*1301 TAP_TAPCELL_ROW_3_135
*1302 TAP_TAPCELL_ROW_3_136
*1303 TAP_TAPCELL_ROW_3_137
*1304 TAP_TAPCELL_ROW_4_138
*1305 TAP_TAPCELL_ROW_4_139
*1306 TAP_TAPCELL_ROW_4_140
*1307 TAP_TAPCELL_ROW_4_141
*1308 TAP_TAPCELL_ROW_4_142
*1309 TAP_TAPCELL_ROW_4_143
*1310 TAP_TAPCELL_ROW_5_144
*1311 TAP_TAPCELL_ROW_5_145
*1312 TAP_TAPCELL_ROW_5_146
*1313 TAP_TAPCELL_ROW_5_147
*1314 TAP_TAPCELL_ROW_5_148
*1315 TAP_TAPCELL_ROW_6_149
*1316 TAP_TAPCELL_ROW_6_150
*1317 TAP_TAPCELL_ROW_6_151
*1318 TAP_TAPCELL_ROW_6_152
*1319 TAP_TAPCELL_ROW_6_153
*1320 TAP_TAPCELL_ROW_6_154
*1321 TAP_TAPCELL_ROW_7_155
*1322 TAP_TAPCELL_ROW_7_156
*1323 TAP_TAPCELL_ROW_7_157
*1324 TAP_TAPCELL_ROW_7_158
*1325 TAP_TAPCELL_ROW_7_159
*1326 TAP_TAPCELL_ROW_8_160
*1327 TAP_TAPCELL_ROW_8_161
*1328 TAP_TAPCELL_ROW_8_162
*1329 TAP_TAPCELL_ROW_8_163
*1330 TAP_TAPCELL_ROW_8_164
*1331 TAP_TAPCELL_ROW_8_165
*1332 TAP_TAPCELL_ROW_9_166
*1333 TAP_TAPCELL_ROW_9_167
*1334 TAP_TAPCELL_ROW_9_168
*1335 TAP_TAPCELL_ROW_9_169
*1336 TAP_TAPCELL_ROW_9_170
*1337 TAP_TAPCELL_ROW_9_171
*1338 TAP_TAPCELL_ROW_9_172
*1339 TAP_TAPCELL_ROW_9_173
*1340 TAP_TAPCELL_ROW_9_174
*1341 TAP_TAPCELL_ROW_9_175
*1342 TAP_TAPCELL_ROW_9_176
*1343 _00_
*1344 _00__9
*1345 _01_
*1346 _01__10
*1347 _02_