*SPEF "ieee 1481-1999"
*DESIGN "tt_um_urish_skullfet"
*DATE "11:11:11 Fri 11 11, 1111"
*VENDOR "OpenRCX"
*PROGRAM "Parallel Extraction"
*VERSION "1.0"
*DESIGN_FLOW "NAME_SCOPE LOCAL" "PIN_CAP NONE"
*DIVIDER /
*DELIMITER :
*BUS_DELIMITER []
*T_UNIT 1 NS
*C_UNIT 1 PF
*R_UNIT 1 OHM
*L_UNIT 1 HENRY

*NAME_MAP
*3 clk
*4 ena
*5 rst_n
*6 ui_in[0]
*7 ui_in[1]
*8 ui_in[2]
*9 ui_in[3]
*10 ui_in[4]
*11 ui_in[5]
*12 ui_in[6]
*13 ui_in[7]
*14 uio_in[0]
*15 uio_in[1]
*16 uio_in[2]
*17 uio_in[3]
*18 uio_in[4]
*19 uio_in[5]
*20 uio_in[6]
*21 uio_in[7]
*22 uio_oe[0]
*23 uio_oe[1]
*24 uio_oe[2]
*25 uio_oe[3]
*26 uio_oe[4]
*27 uio_oe[5]
*28 uio_oe[6]
*29 uio_oe[7]
*30 uio_out[0]
*31 uio_out[1]
*32 uio_out[2]
*33 uio_out[3]
*34 uio_out[4]
*35 uio_out[5]
*36 uio_out[6]
*37 uio_out[7]
*38 uo_out[0]
*39 uo_out[1]
*40 uo_out[2]
*41 uo_out[3]
*42 uo_out[4]
*43 uo_out[5]
*44 uo_out[6]
*45 uo_out[7]
*46 ff1\.q
*47 ff1\.q_bar
*48 inv1_out
*49 nand1_out
*50 net1
*51 net10
*52 net11
*53 net12
*54 net13
*55 net14
*56 net15
*57 net16
*58 net17
*59 net18
*60 net19
*61 net2
*62 net20
*63 net21
*64 net22
*65 net23
*66 net24
*67 net25
*68 net26
*69 net27
*70 net28
*71 net3
*72 net4
*73 net5
*74 net6
*75 net7
*76 net8
*77 net9
*78 FILLER_0_0_109
*79 FILLER_0_0_113
*80 FILLER_0_0_125
*81 FILLER_0_0_137
*82 FILLER_0_0_141
*83 FILLER_0_0_15
*84 FILLER_0_0_153
*85 FILLER_0_0_165
*86 FILLER_0_0_169
*87 FILLER_0_0_181
*88 FILLER_0_0_193
*89 FILLER_0_0_197
*90 FILLER_0_0_209
*91 FILLER_0_0_221
*92 FILLER_0_0_225
*93 FILLER_0_0_237
*94 FILLER_0_0_249
*95 FILLER_0_0_253
*96 FILLER_0_0_265
*97 FILLER_0_0_27
*98 FILLER_0_0_277
*99 FILLER_0_0_281
*100 FILLER_0_0_29
*101 FILLER_0_0_293
*102 FILLER_0_0_3
*103 FILLER_0_0_305
*104 FILLER_0_0_309
*105 FILLER_0_0_321
*106 FILLER_0_0_41
*107 FILLER_0_0_53
*108 FILLER_0_0_57
*109 FILLER_0_0_69
*110 FILLER_0_0_81
*111 FILLER_0_0_85
*112 FILLER_0_0_97
*113 FILLER_0_10_106
*114 FILLER_0_10_108
*115 FILLER_0_10_116
*116 FILLER_0_10_15
*117 FILLER_0_10_169
*118 FILLER_0_10_181
*119 FILLER_0_10_193
*120 FILLER_0_10_195
*121 FILLER_0_10_207
*122 FILLER_0_10_219
*123 FILLER_0_10_231
*124 FILLER_0_10_243
*125 FILLER_0_10_249
*126 FILLER_0_10_251
*127 FILLER_0_10_263
*128 FILLER_0_10_27
*129 FILLER_0_10_275
*130 FILLER_0_10_287
*131 FILLER_0_10_29
*132 FILLER_0_10_299
*133 FILLER_0_10_3
*134 FILLER_0_10_305
*135 FILLER_0_10_307
*136 FILLER_0_10_319
*137 FILLER_0_10_82
*138 FILLER_0_10_94
*139 FILLER_0_11_106
*140 FILLER_0_11_118
*141 FILLER_0_11_15
*142 FILLER_0_11_169
*143 FILLER_0_11_181
*144 FILLER_0_11_193
*145 FILLER_0_11_205
*146 FILLER_0_11_217
*147 FILLER_0_11_221
*148 FILLER_0_11_223
*149 FILLER_0_11_235
*150 FILLER_0_11_247
*151 FILLER_0_11_259
*152 FILLER_0_11_27
*153 FILLER_0_11_271
*154 FILLER_0_11_277
*155 FILLER_0_11_279
*156 FILLER_0_11_291
*157 FILLER_0_11_3
*158 FILLER_0_11_303
*159 FILLER_0_11_31
*160 FILLER_0_11_315
*161 FILLER_0_11_82
*162 FILLER_0_11_94
*163 FILLER_0_12_106
*164 FILLER_0_12_108
*165 FILLER_0_12_116
*166 FILLER_0_12_15
*167 FILLER_0_12_169
*168 FILLER_0_12_181
*169 FILLER_0_12_193
*170 FILLER_0_12_195
*171 FILLER_0_12_207
*172 FILLER_0_12_219
*173 FILLER_0_12_231
*174 FILLER_0_12_243
*175 FILLER_0_12_249
*176 FILLER_0_12_251
*177 FILLER_0_12_263
*178 FILLER_0_12_27
*179 FILLER_0_12_275
*180 FILLER_0_12_287
*181 FILLER_0_12_29
*182 FILLER_0_12_299
*183 FILLER_0_12_3
*184 FILLER_0_12_305
*185 FILLER_0_12_307
*186 FILLER_0_12_319
*187 FILLER_0_12_82
*188 FILLER_0_12_94
*189 FILLER_0_13_106
*190 FILLER_0_13_118
*191 FILLER_0_13_15
*192 FILLER_0_13_169
*193 FILLER_0_13_181
*194 FILLER_0_13_193
*195 FILLER_0_13_205
*196 FILLER_0_13_217
*197 FILLER_0_13_221
*198 FILLER_0_13_223
*199 FILLER_0_13_235
*200 FILLER_0_13_247
*201 FILLER_0_13_259
*202 FILLER_0_13_27
*203 FILLER_0_13_271
*204 FILLER_0_13_277
*205 FILLER_0_13_279
*206 FILLER_0_13_291
*207 FILLER_0_13_3
*208 FILLER_0_13_303
*209 FILLER_0_13_31
*210 FILLER_0_13_315
*211 FILLER_0_13_82
*212 FILLER_0_13_94
*213 FILLER_0_14_106
*214 FILLER_0_14_108
*215 FILLER_0_14_116
*216 FILLER_0_14_15
*217 FILLER_0_14_169
*218 FILLER_0_14_181
*219 FILLER_0_14_193
*220 FILLER_0_14_195
*221 FILLER_0_14_207
*222 FILLER_0_14_219
*223 FILLER_0_14_231
*224 FILLER_0_14_243
*225 FILLER_0_14_249
*226 FILLER_0_14_251
*227 FILLER_0_14_263
*228 FILLER_0_14_27
*229 FILLER_0_14_275
*230 FILLER_0_14_287
*231 FILLER_0_14_29
*232 FILLER_0_14_299
*233 FILLER_0_14_3
*234 FILLER_0_14_305
*235 FILLER_0_14_307
*236 FILLER_0_14_319
*237 FILLER_0_14_82
*238 FILLER_0_14_94
*239 FILLER_0_15_106
*240 FILLER_0_15_118
*241 FILLER_0_15_15
*242 FILLER_0_15_169
*243 FILLER_0_15_181
*244 FILLER_0_15_193
*245 FILLER_0_15_205
*246 FILLER_0_15_217
*247 FILLER_0_15_221
*248 FILLER_0_15_223
*249 FILLER_0_15_235
*250 FILLER_0_15_247
*251 FILLER_0_15_259
*252 FILLER_0_15_27
*253 FILLER_0_15_271
*254 FILLER_0_15_277
*255 FILLER_0_15_279
*256 FILLER_0_15_291
*257 FILLER_0_15_3
*258 FILLER_0_15_303
*259 FILLER_0_15_31
*260 FILLER_0_15_315
*261 FILLER_0_15_82
*262 FILLER_0_15_94
*263 FILLER_0_16_109
*264 FILLER_0_16_113
*265 FILLER_0_16_125
*266 FILLER_0_16_137
*267 FILLER_0_16_141
*268 FILLER_0_16_15
*269 FILLER_0_16_153
*270 FILLER_0_16_165
*271 FILLER_0_16_169
*272 FILLER_0_16_181
*273 FILLER_0_16_193
*274 FILLER_0_16_197
*275 FILLER_0_16_209
*276 FILLER_0_16_221
*277 FILLER_0_16_225
*278 FILLER_0_16_237
*279 FILLER_0_16_249
*280 FILLER_0_16_253
*281 FILLER_0_16_265
*282 FILLER_0_16_27
*283 FILLER_0_16_277
*284 FILLER_0_16_281
*285 FILLER_0_16_29
*286 FILLER_0_16_293
*287 FILLER_0_16_3
*288 FILLER_0_16_305
*289 FILLER_0_16_309
*290 FILLER_0_16_321
*291 FILLER_0_16_41
*292 FILLER_0_16_53
*293 FILLER_0_16_57
*294 FILLER_0_16_69
*295 FILLER_0_16_81
*296 FILLER_0_16_85
*297 FILLER_0_16_97
*298 FILLER_0_17_105
*299 FILLER_0_17_111
*300 FILLER_0_17_113
*301 FILLER_0_17_125
*302 FILLER_0_17_137
*303 FILLER_0_17_149
*304 FILLER_0_17_15
*305 FILLER_0_17_161
*306 FILLER_0_17_167
*307 FILLER_0_17_169
*308 FILLER_0_17_181
*309 FILLER_0_17_193
*310 FILLER_0_17_205
*311 FILLER_0_17_217
*312 FILLER_0_17_223
*313 FILLER_0_17_225
*314 FILLER_0_17_237
*315 FILLER_0_17_249
*316 FILLER_0_17_261
*317 FILLER_0_17_27
*318 FILLER_0_17_273
*319 FILLER_0_17_279
*320 FILLER_0_17_281
*321 FILLER_0_17_293
*322 FILLER_0_17_3
*323 FILLER_0_17_305
*324 FILLER_0_17_317
*325 FILLER_0_17_325
*326 FILLER_0_17_39
*327 FILLER_0_17_51
*328 FILLER_0_17_55
*329 FILLER_0_17_57
*330 FILLER_0_17_69
*331 FILLER_0_17_81
*332 FILLER_0_17_93
*333 FILLER_0_18_109
*334 FILLER_0_18_121
*335 FILLER_0_18_133
*336 FILLER_0_18_139
*337 FILLER_0_18_141
*338 FILLER_0_18_15
*339 FILLER_0_18_153
*340 FILLER_0_18_165
*341 FILLER_0_18_177
*342 FILLER_0_18_189
*343 FILLER_0_18_195
*344 FILLER_0_18_197
*345 FILLER_0_18_209
*346 FILLER_0_18_221
*347 FILLER_0_18_233
*348 FILLER_0_18_245
*349 FILLER_0_18_251
*350 FILLER_0_18_253
*351 FILLER_0_18_265
*352 FILLER_0_18_27
*353 FILLER_0_18_277
*354 FILLER_0_18_289
*355 FILLER_0_18_29
*356 FILLER_0_18_3
*357 FILLER_0_18_301
*358 FILLER_0_18_307
*359 FILLER_0_18_309
*360 FILLER_0_18_321
*361 FILLER_0_18_41
*362 FILLER_0_18_53
*363 FILLER_0_18_65
*364 FILLER_0_18_77
*365 FILLER_0_18_83
*366 FILLER_0_18_85
*367 FILLER_0_18_97
*368 FILLER_0_19_105
*369 FILLER_0_19_111
*370 FILLER_0_19_113
*371 FILLER_0_19_125
*372 FILLER_0_19_137
*373 FILLER_0_19_149
*374 FILLER_0_19_15
*375 FILLER_0_19_166
*376 FILLER_0_19_172
*377 FILLER_0_19_184
*378 FILLER_0_19_196
*379 FILLER_0_19_208
*380 FILLER_0_19_220
*381 FILLER_0_19_225
*382 FILLER_0_19_237
*383 FILLER_0_19_249
*384 FILLER_0_19_261
*385 FILLER_0_19_27
*386 FILLER_0_19_273
*387 FILLER_0_19_279
*388 FILLER_0_19_281
*389 FILLER_0_19_293
*390 FILLER_0_19_3
*391 FILLER_0_19_305
*392 FILLER_0_19_317
*393 FILLER_0_19_325
*394 FILLER_0_19_39
*395 FILLER_0_19_51
*396 FILLER_0_19_55
*397 FILLER_0_19_57
*398 FILLER_0_19_69
*399 FILLER_0_19_81
*400 FILLER_0_19_93
*401 FILLER_0_1_109
*402 FILLER_0_1_113
*403 FILLER_0_1_125
*404 FILLER_0_1_137
*405 FILLER_0_1_141
*406 FILLER_0_1_15
*407 FILLER_0_1_153
*408 FILLER_0_1_165
*409 FILLER_0_1_169
*410 FILLER_0_1_181
*411 FILLER_0_1_193
*412 FILLER_0_1_197
*413 FILLER_0_1_209
*414 FILLER_0_1_221
*415 FILLER_0_1_225
*416 FILLER_0_1_237
*417 FILLER_0_1_249
*418 FILLER_0_1_253
*419 FILLER_0_1_265
*420 FILLER_0_1_27
*421 FILLER_0_1_277
*422 FILLER_0_1_281
*423 FILLER_0_1_29
*424 FILLER_0_1_293
*425 FILLER_0_1_3
*426 FILLER_0_1_305
*427 FILLER_0_1_309
*428 FILLER_0_1_321
*429 FILLER_0_1_41
*430 FILLER_0_1_53
*431 FILLER_0_1_57
*432 FILLER_0_1_69
*433 FILLER_0_1_81
*434 FILLER_0_1_85
*435 FILLER_0_1_97
*436 FILLER_0_20_109
*437 FILLER_0_20_121
*438 FILLER_0_20_133
*439 FILLER_0_20_139
*440 FILLER_0_20_141
*441 FILLER_0_20_15
*442 FILLER_0_20_153
*443 FILLER_0_20_165
*444 FILLER_0_20_177
*445 FILLER_0_20_189
*446 FILLER_0_20_195
*447 FILLER_0_20_197
*448 FILLER_0_20_209
*449 FILLER_0_20_221
*450 FILLER_0_20_233
*451 FILLER_0_20_245
*452 FILLER_0_20_251
*453 FILLER_0_20_253
*454 FILLER_0_20_265
*455 FILLER_0_20_27
*456 FILLER_0_20_277
*457 FILLER_0_20_289
*458 FILLER_0_20_29
*459 FILLER_0_20_3
*460 FILLER_0_20_301
*461 FILLER_0_20_307
*462 FILLER_0_20_309
*463 FILLER_0_20_321
*464 FILLER_0_20_41
*465 FILLER_0_20_53
*466 FILLER_0_20_65
*467 FILLER_0_20_77
*468 FILLER_0_20_83
*469 FILLER_0_20_85
*470 FILLER_0_20_97
*471 FILLER_0_21_105
*472 FILLER_0_21_111
*473 FILLER_0_21_113
*474 FILLER_0_21_125
*475 FILLER_0_21_137
*476 FILLER_0_21_149
*477 FILLER_0_21_15
*478 FILLER_0_21_161
*479 FILLER_0_21_167
*480 FILLER_0_21_169
*481 FILLER_0_21_181
*482 FILLER_0_21_193
*483 FILLER_0_21_205
*484 FILLER_0_21_217
*485 FILLER_0_21_223
*486 FILLER_0_21_225
*487 FILLER_0_21_237
*488 FILLER_0_21_249
*489 FILLER_0_21_261
*490 FILLER_0_21_27
*491 FILLER_0_21_273
*492 FILLER_0_21_279
*493 FILLER_0_21_281
*494 FILLER_0_21_293
*495 FILLER_0_21_3
*496 FILLER_0_21_305
*497 FILLER_0_21_317
*498 FILLER_0_21_325
*499 FILLER_0_21_39
*500 FILLER_0_21_51
*501 FILLER_0_21_55
*502 FILLER_0_21_57
*503 FILLER_0_21_69
*504 FILLER_0_21_81
*505 FILLER_0_21_93
*506 FILLER_0_22_109
*507 FILLER_0_22_121
*508 FILLER_0_22_133
*509 FILLER_0_22_139
*510 FILLER_0_22_141
*511 FILLER_0_22_15
*512 FILLER_0_22_153
*513 FILLER_0_22_165
*514 FILLER_0_22_177
*515 FILLER_0_22_189
*516 FILLER_0_22_195
*517 FILLER_0_22_197
*518 FILLER_0_22_209
*519 FILLER_0_22_221
*520 FILLER_0_22_233
*521 FILLER_0_22_245
*522 FILLER_0_22_251
*523 FILLER_0_22_253
*524 FILLER_0_22_265
*525 FILLER_0_22_27
*526 FILLER_0_22_277
*527 FILLER_0_22_289
*528 FILLER_0_22_29
*529 FILLER_0_22_3
*530 FILLER_0_22_301
*531 FILLER_0_22_307
*532 FILLER_0_22_309
*533 FILLER_0_22_321
*534 FILLER_0_22_41
*535 FILLER_0_22_53
*536 FILLER_0_22_65
*537 FILLER_0_22_77
*538 FILLER_0_22_83
*539 FILLER_0_22_85
*540 FILLER_0_22_97
*541 FILLER_0_23_105
*542 FILLER_0_23_111
*543 FILLER_0_23_113
*544 FILLER_0_23_125
*545 FILLER_0_23_137
*546 FILLER_0_23_149
*547 FILLER_0_23_15
*548 FILLER_0_23_161
*549 FILLER_0_23_167
*550 FILLER_0_23_169
*551 FILLER_0_23_181
*552 FILLER_0_23_193
*553 FILLER_0_23_205
*554 FILLER_0_23_217
*555 FILLER_0_23_223
*556 FILLER_0_23_225
*557 FILLER_0_23_237
*558 FILLER_0_23_249
*559 FILLER_0_23_261
*560 FILLER_0_23_27
*561 FILLER_0_23_273
*562 FILLER_0_23_279
*563 FILLER_0_23_281
*564 FILLER_0_23_293
*565 FILLER_0_23_3
*566 FILLER_0_23_305
*567 FILLER_0_23_317
*568 FILLER_0_23_325
*569 FILLER_0_23_39
*570 FILLER_0_23_51
*571 FILLER_0_23_55
*572 FILLER_0_23_57
*573 FILLER_0_23_69
*574 FILLER_0_23_81
*575 FILLER_0_23_93
*576 FILLER_0_24_109
*577 FILLER_0_24_121
*578 FILLER_0_24_133
*579 FILLER_0_24_139
*580 FILLER_0_24_141
*581 FILLER_0_24_15
*582 FILLER_0_24_153
*583 FILLER_0_24_165
*584 FILLER_0_24_177
*585 FILLER_0_24_189
*586 FILLER_0_24_195
*587 FILLER_0_24_197
*588 FILLER_0_24_209
*589 FILLER_0_24_221
*590 FILLER_0_24_233
*591 FILLER_0_24_245
*592 FILLER_0_24_251
*593 FILLER_0_24_253
*594 FILLER_0_24_265
*595 FILLER_0_24_27
*596 FILLER_0_24_277
*597 FILLER_0_24_289
*598 FILLER_0_24_29
*599 FILLER_0_24_3
*600 FILLER_0_24_301
*601 FILLER_0_24_307
*602 FILLER_0_24_309
*603 FILLER_0_24_321
*604 FILLER_0_24_41
*605 FILLER_0_24_53
*606 FILLER_0_24_65
*607 FILLER_0_24_77
*608 FILLER_0_24_83
*609 FILLER_0_24_85
*610 FILLER_0_24_97
*611 FILLER_0_25_105
*612 FILLER_0_25_111
*613 FILLER_0_25_113
*614 FILLER_0_25_125
*615 FILLER_0_25_137
*616 FILLER_0_25_149
*617 FILLER_0_25_15
*618 FILLER_0_25_161
*619 FILLER_0_25_167
*620 FILLER_0_25_169
*621 FILLER_0_25_181
*622 FILLER_0_25_193
*623 FILLER_0_25_205
*624 FILLER_0_25_217
*625 FILLER_0_25_223
*626 FILLER_0_25_225
*627 FILLER_0_25_237
*628 FILLER_0_25_249
*629 FILLER_0_25_261
*630 FILLER_0_25_27
*631 FILLER_0_25_273
*632 FILLER_0_25_279
*633 FILLER_0_25_281
*634 FILLER_0_25_293
*635 FILLER_0_25_3
*636 FILLER_0_25_305
*637 FILLER_0_25_317
*638 FILLER_0_25_325
*639 FILLER_0_25_39
*640 FILLER_0_25_51
*641 FILLER_0_25_55
*642 FILLER_0_25_57
*643 FILLER_0_25_69
*644 FILLER_0_25_81
*645 FILLER_0_25_93
*646 FILLER_0_26_109
*647 FILLER_0_26_121
*648 FILLER_0_26_133
*649 FILLER_0_26_139
*650 FILLER_0_26_141
*651 FILLER_0_26_15
*652 FILLER_0_26_153
*653 FILLER_0_26_165
*654 FILLER_0_26_177
*655 FILLER_0_26_189
*656 FILLER_0_26_195
*657 FILLER_0_26_197
*658 FILLER_0_26_209
*659 FILLER_0_26_221
*660 FILLER_0_26_233
*661 FILLER_0_26_245
*662 FILLER_0_26_251
*663 FILLER_0_26_253
*664 FILLER_0_26_265
*665 FILLER_0_26_27
*666 FILLER_0_26_277
*667 FILLER_0_26_289
*668 FILLER_0_26_29
*669 FILLER_0_26_3
*670 FILLER_0_26_301
*671 FILLER_0_26_307
*672 FILLER_0_26_309
*673 FILLER_0_26_321
*674 FILLER_0_26_41
*675 FILLER_0_26_53
*676 FILLER_0_26_65
*677 FILLER_0_26_77
*678 FILLER_0_26_83
*679 FILLER_0_26_85
*680 FILLER_0_26_97
*681 FILLER_0_27_105
*682 FILLER_0_27_111
*683 FILLER_0_27_113
*684 FILLER_0_27_125
*685 FILLER_0_27_137
*686 FILLER_0_27_149
*687 FILLER_0_27_15
*688 FILLER_0_27_161
*689 FILLER_0_27_167
*690 FILLER_0_27_169
*691 FILLER_0_27_181
*692 FILLER_0_27_193
*693 FILLER_0_27_205
*694 FILLER_0_27_217
*695 FILLER_0_27_223
*696 FILLER_0_27_225
*697 FILLER_0_27_237
*698 FILLER_0_27_249
*699 FILLER_0_27_261
*700 FILLER_0_27_27
*701 FILLER_0_27_273
*702 FILLER_0_27_279
*703 FILLER_0_27_281
*704 FILLER_0_27_293
*705 FILLER_0_27_3
*706 FILLER_0_27_305
*707 FILLER_0_27_317
*708 FILLER_0_27_325
*709 FILLER_0_27_39
*710 FILLER_0_27_51
*711 FILLER_0_27_55
*712 FILLER_0_27_57
*713 FILLER_0_27_69
*714 FILLER_0_27_81
*715 FILLER_0_27_93
*716 FILLER_0_28_109
*717 FILLER_0_28_121
*718 FILLER_0_28_133
*719 FILLER_0_28_139
*720 FILLER_0_28_141
*721 FILLER_0_28_15
*722 FILLER_0_28_153
*723 FILLER_0_28_165
*724 FILLER_0_28_177
*725 FILLER_0_28_189
*726 FILLER_0_28_195
*727 FILLER_0_28_197
*728 FILLER_0_28_209
*729 FILLER_0_28_221
*730 FILLER_0_28_233
*731 FILLER_0_28_245
*732 FILLER_0_28_251
*733 FILLER_0_28_253
*734 FILLER_0_28_265
*735 FILLER_0_28_27
*736 FILLER_0_28_277
*737 FILLER_0_28_289
*738 FILLER_0_28_29
*739 FILLER_0_28_3
*740 FILLER_0_28_301
*741 FILLER_0_28_307
*742 FILLER_0_28_309
*743 FILLER_0_28_321
*744 FILLER_0_28_41
*745 FILLER_0_28_53
*746 FILLER_0_28_65
*747 FILLER_0_28_77
*748 FILLER_0_28_83
*749 FILLER_0_28_85
*750 FILLER_0_28_97
*751 FILLER_0_29_105
*752 FILLER_0_29_111
*753 FILLER_0_29_113
*754 FILLER_0_29_125
*755 FILLER_0_29_137
*756 FILLER_0_29_149
*757 FILLER_0_29_15
*758 FILLER_0_29_161
*759 FILLER_0_29_167
*760 FILLER_0_29_169
*761 FILLER_0_29_181
*762 FILLER_0_29_193
*763 FILLER_0_29_205
*764 FILLER_0_29_217
*765 FILLER_0_29_223
*766 FILLER_0_29_225
*767 FILLER_0_29_237
*768 FILLER_0_29_249
*769 FILLER_0_29_261
*770 FILLER_0_29_27
*771 FILLER_0_29_273
*772 FILLER_0_29_279
*773 FILLER_0_29_281
*774 FILLER_0_29_293
*775 FILLER_0_29_3
*776 FILLER_0_29_305
*777 FILLER_0_29_317
*778 FILLER_0_29_325
*779 FILLER_0_29_39
*780 FILLER_0_29_51
*781 FILLER_0_29_55
*782 FILLER_0_29_57
*783 FILLER_0_29_69
*784 FILLER_0_29_81
*785 FILLER_0_29_93
*786 FILLER_0_2_111
*787 FILLER_0_2_15
*788 FILLER_0_2_169
*789 FILLER_0_2_181
*790 FILLER_0_2_193
*791 FILLER_0_2_195
*792 FILLER_0_2_207
*793 FILLER_0_2_219
*794 FILLER_0_2_231
*795 FILLER_0_2_243
*796 FILLER_0_2_249
*797 FILLER_0_2_251
*798 FILLER_0_2_263
*799 FILLER_0_2_27
*800 FILLER_0_2_275
*801 FILLER_0_2_287
*802 FILLER_0_2_29
*803 FILLER_0_2_299
*804 FILLER_0_2_3
*805 FILLER_0_2_305
*806 FILLER_0_2_307
*807 FILLER_0_2_319
*808 FILLER_0_2_61
*809 FILLER_0_2_73
*810 FILLER_0_2_85
*811 FILLER_0_2_87
*812 FILLER_0_2_99
*813 FILLER_0_30_109
*814 FILLER_0_30_121
*815 FILLER_0_30_133
*816 FILLER_0_30_139
*817 FILLER_0_30_141
*818 FILLER_0_30_15
*819 FILLER_0_30_153
*820 FILLER_0_30_165
*821 FILLER_0_30_177
*822 FILLER_0_30_189
*823 FILLER_0_30_195
*824 FILLER_0_30_197
*825 FILLER_0_30_209
*826 FILLER_0_30_221
*827 FILLER_0_30_233
*828 FILLER_0_30_245
*829 FILLER_0_30_251
*830 FILLER_0_30_253
*831 FILLER_0_30_265
*832 FILLER_0_30_27
*833 FILLER_0_30_277
*834 FILLER_0_30_289
*835 FILLER_0_30_29
*836 FILLER_0_30_3
*837 FILLER_0_30_301
*838 FILLER_0_30_307
*839 FILLER_0_30_309
*840 FILLER_0_30_321
*841 FILLER_0_30_41
*842 FILLER_0_30_53
*843 FILLER_0_30_65
*844 FILLER_0_30_77
*845 FILLER_0_30_83
*846 FILLER_0_30_85
*847 FILLER_0_30_97
*848 FILLER_0_31_105
*849 FILLER_0_31_111
*850 FILLER_0_31_113
*851 FILLER_0_31_125
*852 FILLER_0_31_137
*853 FILLER_0_31_149
*854 FILLER_0_31_15
*855 FILLER_0_31_161
*856 FILLER_0_31_167
*857 FILLER_0_31_169
*858 FILLER_0_31_181
*859 FILLER_0_31_193
*860 FILLER_0_31_205
*861 FILLER_0_31_217
*862 FILLER_0_31_223
*863 FILLER_0_31_225
*864 FILLER_0_31_237
*865 FILLER_0_31_249
*866 FILLER_0_31_261
*867 FILLER_0_31_27
*868 FILLER_0_31_273
*869 FILLER_0_31_279
*870 FILLER_0_31_281
*871 FILLER_0_31_293
*872 FILLER_0_31_3
*873 FILLER_0_31_305
*874 FILLER_0_31_317
*875 FILLER_0_31_325
*876 FILLER_0_31_39
*877 FILLER_0_31_51
*878 FILLER_0_31_55
*879 FILLER_0_31_57
*880 FILLER_0_31_69
*881 FILLER_0_31_81
*882 FILLER_0_31_93
*883 FILLER_0_32_109
*884 FILLER_0_32_121
*885 FILLER_0_32_133
*886 FILLER_0_32_139
*887 FILLER_0_32_141
*888 FILLER_0_32_15
*889 FILLER_0_32_153
*890 FILLER_0_32_165
*891 FILLER_0_32_177
*892 FILLER_0_32_189
*893 FILLER_0_32_195
*894 FILLER_0_32_197
*895 FILLER_0_32_209
*896 FILLER_0_32_221
*897 FILLER_0_32_233
*898 FILLER_0_32_245
*899 FILLER_0_32_251
*900 FILLER_0_32_253
*901 FILLER_0_32_265
*902 FILLER_0_32_27
*903 FILLER_0_32_277
*904 FILLER_0_32_289
*905 FILLER_0_32_29
*906 FILLER_0_32_3
*907 FILLER_0_32_301
*908 FILLER_0_32_307
*909 FILLER_0_32_309
*910 FILLER_0_32_321
*911 FILLER_0_32_41
*912 FILLER_0_32_53
*913 FILLER_0_32_65
*914 FILLER_0_32_77
*915 FILLER_0_32_83
*916 FILLER_0_32_85
*917 FILLER_0_32_97
*918 FILLER_0_33_105
*919 FILLER_0_33_111
*920 FILLER_0_33_113
*921 FILLER_0_33_125
*922 FILLER_0_33_137
*923 FILLER_0_33_149
*924 FILLER_0_33_15
*925 FILLER_0_33_161
*926 FILLER_0_33_167
*927 FILLER_0_33_169
*928 FILLER_0_33_181
*929 FILLER_0_33_193
*930 FILLER_0_33_205
*931 FILLER_0_33_217
*932 FILLER_0_33_223
*933 FILLER_0_33_225
*934 FILLER_0_33_237
*935 FILLER_0_33_249
*936 FILLER_0_33_261
*937 FILLER_0_33_27
*938 FILLER_0_33_273
*939 FILLER_0_33_279
*940 FILLER_0_33_281
*941 FILLER_0_33_293
*942 FILLER_0_33_3
*943 FILLER_0_33_305
*944 FILLER_0_33_317
*945 FILLER_0_33_325
*946 FILLER_0_33_39
*947 FILLER_0_33_51
*948 FILLER_0_33_55
*949 FILLER_0_33_57
*950 FILLER_0_33_69
*951 FILLER_0_33_81
*952 FILLER_0_33_93
*953 FILLER_0_34_109
*954 FILLER_0_34_121
*955 FILLER_0_34_133
*956 FILLER_0_34_139
*957 FILLER_0_34_141
*958 FILLER_0_34_15
*959 FILLER_0_34_153
*960 FILLER_0_34_165
*961 FILLER_0_34_177
*962 FILLER_0_34_189
*963 FILLER_0_34_195
*964 FILLER_0_34_197
*965 FILLER_0_34_209
*966 FILLER_0_34_221
*967 FILLER_0_34_233
*968 FILLER_0_34_245
*969 FILLER_0_34_251
*970 FILLER_0_34_253
*971 FILLER_0_34_265
*972 FILLER_0_34_27
*973 FILLER_0_34_277
*974 FILLER_0_34_289
*975 FILLER_0_34_29
*976 FILLER_0_34_3
*977 FILLER_0_34_301
*978 FILLER_0_34_307
*979 FILLER_0_34_309
*980 FILLER_0_34_321
*981 FILLER_0_34_41
*982 FILLER_0_34_53
*983 FILLER_0_34_65
*984 FILLER_0_34_77
*985 FILLER_0_34_83
*986 FILLER_0_34_85
*987 FILLER_0_34_97
*988 FILLER_0_35_105
*989 FILLER_0_35_111
*990 FILLER_0_35_113
*991 FILLER_0_35_125
*992 FILLER_0_35_137
*993 FILLER_0_35_149
*994 FILLER_0_35_15
*995 FILLER_0_35_161
*996 FILLER_0_35_167
*997 FILLER_0_35_169
*998 FILLER_0_35_181
*999 FILLER_0_35_193
*1000 FILLER_0_35_205
*1001 FILLER_0_35_217
*1002 FILLER_0_35_223
*1003 FILLER_0_35_225
*1004 FILLER_0_35_237
*1005 FILLER_0_35_249
*1006 FILLER_0_35_261
*1007 FILLER_0_35_27
*1008 FILLER_0_35_273
*1009 FILLER_0_35_279
*1010 FILLER_0_35_281
*1011 FILLER_0_35_293
*1012 FILLER_0_35_3
*1013 FILLER_0_35_305
*1014 FILLER_0_35_317
*1015 FILLER_0_35_325
*1016 FILLER_0_35_39
*1017 FILLER_0_35_51
*1018 FILLER_0_35_55
*1019 FILLER_0_35_57
*1020 FILLER_0_35_69
*1021 FILLER_0_35_81
*1022 FILLER_0_35_93
*1023 FILLER_0_36_109
*1024 FILLER_0_36_121
*1025 FILLER_0_36_133
*1026 FILLER_0_36_139
*1027 FILLER_0_36_141
*1028 FILLER_0_36_15
*1029 FILLER_0_36_153
*1030 FILLER_0_36_165
*1031 FILLER_0_36_177
*1032 FILLER_0_36_189
*1033 FILLER_0_36_195
*1034 FILLER_0_36_197
*1035 FILLER_0_36_209
*1036 FILLER_0_36_221
*1037 FILLER_0_36_233
*1038 FILLER_0_36_245
*1039 FILLER_0_36_251
*1040 FILLER_0_36_253
*1041 FILLER_0_36_265
*1042 FILLER_0_36_27
*1043 FILLER_0_36_277
*1044 FILLER_0_36_289
*1045 FILLER_0_36_29
*1046 FILLER_0_36_3
*1047 FILLER_0_36_301
*1048 FILLER_0_36_307
*1049 FILLER_0_36_309
*1050 FILLER_0_36_321
*1051 FILLER_0_36_41
*1052 FILLER_0_36_53
*1053 FILLER_0_36_65
*1054 FILLER_0_36_77
*1055 FILLER_0_36_83
*1056 FILLER_0_36_85
*1057 FILLER_0_36_97
*1058 FILLER_0_37_104
*1059 FILLER_0_37_108
*1060 FILLER_0_37_116
*1061 FILLER_0_37_128
*1062 FILLER_0_37_132
*1063 FILLER_0_37_138
*1064 FILLER_0_37_144
*1065 FILLER_0_37_15
*1066 FILLER_0_37_156
*1067 FILLER_0_37_169
*1068 FILLER_0_37_181
*1069 FILLER_0_37_193
*1070 FILLER_0_37_205
*1071 FILLER_0_37_217
*1072 FILLER_0_37_223
*1073 FILLER_0_37_225
*1074 FILLER_0_37_237
*1075 FILLER_0_37_249
*1076 FILLER_0_37_261
*1077 FILLER_0_37_27
*1078 FILLER_0_37_273
*1079 FILLER_0_37_279
*1080 FILLER_0_37_281
*1081 FILLER_0_37_293
*1082 FILLER_0_37_3
*1083 FILLER_0_37_305
*1084 FILLER_0_37_317
*1085 FILLER_0_37_325
*1086 FILLER_0_37_39
*1087 FILLER_0_37_50
*1088 FILLER_0_37_54
*1089 FILLER_0_37_60
*1090 FILLER_0_37_66
*1091 FILLER_0_37_72
*1092 FILLER_0_37_78
*1093 FILLER_0_37_84
*1094 FILLER_0_37_90
*1095 FILLER_0_37_96
*1096 FILLER_0_38_103
*1097 FILLER_0_38_127
*1098 FILLER_0_38_15
*1099 FILLER_0_38_155
*1100 FILLER_0_38_165
*1101 FILLER_0_38_183
*1102 FILLER_0_38_195
*1103 FILLER_0_38_197
*1104 FILLER_0_38_209
*1105 FILLER_0_38_221
*1106 FILLER_0_38_225
*1107 FILLER_0_38_237
*1108 FILLER_0_38_249
*1109 FILLER_0_38_266
*1110 FILLER_0_38_27
*1111 FILLER_0_38_272
*1112 FILLER_0_38_285
*1113 FILLER_0_38_29
*1114 FILLER_0_38_297
*1115 FILLER_0_38_3
*1116 FILLER_0_38_305
*1117 FILLER_0_38_309
*1118 FILLER_0_38_321
*1119 FILLER_0_38_37
*1120 FILLER_0_38_50
*1121 FILLER_0_38_55
*1122 FILLER_0_38_61
*1123 FILLER_0_38_67
*1124 FILLER_0_38_73
*1125 FILLER_0_38_79
*1126 FILLER_0_38_85
*1127 FILLER_0_38_90
*1128 FILLER_0_3_109
*1129 FILLER_0_3_113
*1130 FILLER_0_3_115
*1131 FILLER_0_3_15
*1132 FILLER_0_3_169
*1133 FILLER_0_3_181
*1134 FILLER_0_3_193
*1135 FILLER_0_3_205
*1136 FILLER_0_3_217
*1137 FILLER_0_3_221
*1138 FILLER_0_3_223
*1139 FILLER_0_3_235
*1140 FILLER_0_3_247
*1141 FILLER_0_3_259
*1142 FILLER_0_3_27
*1143 FILLER_0_3_271
*1144 FILLER_0_3_277
*1145 FILLER_0_3_279
*1146 FILLER_0_3_291
*1147 FILLER_0_3_3
*1148 FILLER_0_3_303
*1149 FILLER_0_3_31
*1150 FILLER_0_3_315
*1151 FILLER_0_3_61
*1152 FILLER_0_3_73
*1153 FILLER_0_3_85
*1154 FILLER_0_3_97
*1155 FILLER_0_4_111
*1156 FILLER_0_4_15
*1157 FILLER_0_4_169
*1158 FILLER_0_4_181
*1159 FILLER_0_4_193
*1160 FILLER_0_4_195
*1161 FILLER_0_4_207
*1162 FILLER_0_4_219
*1163 FILLER_0_4_231
*1164 FILLER_0_4_243
*1165 FILLER_0_4_249
*1166 FILLER_0_4_251
*1167 FILLER_0_4_263
*1168 FILLER_0_4_27
*1169 FILLER_0_4_275
*1170 FILLER_0_4_287
*1171 FILLER_0_4_29
*1172 FILLER_0_4_299
*1173 FILLER_0_4_3
*1174 FILLER_0_4_305
*1175 FILLER_0_4_307
*1176 FILLER_0_4_319
*1177 FILLER_0_4_61
*1178 FILLER_0_4_73
*1179 FILLER_0_4_85
*1180 FILLER_0_4_87
*1181 FILLER_0_4_99
*1182 FILLER_0_5_109
*1183 FILLER_0_5_113
*1184 FILLER_0_5_115
*1185 FILLER_0_5_15
*1186 FILLER_0_5_169
*1187 FILLER_0_5_181
*1188 FILLER_0_5_193
*1189 FILLER_0_5_205
*1190 FILLER_0_5_217
*1191 FILLER_0_5_221
*1192 FILLER_0_5_223
*1193 FILLER_0_5_235
*1194 FILLER_0_5_247
*1195 FILLER_0_5_259
*1196 FILLER_0_5_27
*1197 FILLER_0_5_271
*1198 FILLER_0_5_277
*1199 FILLER_0_5_279
*1200 FILLER_0_5_291
*1201 FILLER_0_5_3
*1202 FILLER_0_5_303
*1203 FILLER_0_5_31
*1204 FILLER_0_5_315
*1205 FILLER_0_5_61
*1206 FILLER_0_5_73
*1207 FILLER_0_5_85
*1208 FILLER_0_5_97
*1209 FILLER_0_6_111
*1210 FILLER_0_6_15
*1211 FILLER_0_6_169
*1212 FILLER_0_6_181
*1213 FILLER_0_6_193
*1214 FILLER_0_6_195
*1215 FILLER_0_6_207
*1216 FILLER_0_6_219
*1217 FILLER_0_6_231
*1218 FILLER_0_6_243
*1219 FILLER_0_6_249
*1220 FILLER_0_6_251
*1221 FILLER_0_6_263
*1222 FILLER_0_6_27
*1223 FILLER_0_6_275
*1224 FILLER_0_6_287
*1225 FILLER_0_6_29
*1226 FILLER_0_6_299
*1227 FILLER_0_6_3
*1228 FILLER_0_6_305
*1229 FILLER_0_6_307
*1230 FILLER_0_6_319
*1231 FILLER_0_6_61
*1232 FILLER_0_6_73
*1233 FILLER_0_6_85
*1234 FILLER_0_6_87
*1235 FILLER_0_6_99
*1236 FILLER_0_7_109
*1237 FILLER_0_7_113
*1238 FILLER_0_7_115
*1239 FILLER_0_7_15
*1240 FILLER_0_7_169
*1241 FILLER_0_7_181
*1242 FILLER_0_7_193
*1243 FILLER_0_7_205
*1244 FILLER_0_7_217
*1245 FILLER_0_7_221
*1246 FILLER_0_7_223
*1247 FILLER_0_7_235
*1248 FILLER_0_7_247
*1249 FILLER_0_7_259
*1250 FILLER_0_7_27
*1251 FILLER_0_7_271
*1252 FILLER_0_7_277
*1253 FILLER_0_7_279
*1254 FILLER_0_7_291
*1255 FILLER_0_7_3
*1256 FILLER_0_7_303
*1257 FILLER_0_7_31
*1258 FILLER_0_7_315
*1259 FILLER_0_7_61
*1260 FILLER_0_7_73
*1261 FILLER_0_7_85
*1262 FILLER_0_7_97
*1263 FILLER_0_8_111
*1264 FILLER_0_8_15
*1265 FILLER_0_8_169
*1266 FILLER_0_8_181
*1267 FILLER_0_8_193
*1268 FILLER_0_8_195
*1269 FILLER_0_8_207
*1270 FILLER_0_8_219
*1271 FILLER_0_8_231
*1272 FILLER_0_8_243
*1273 FILLER_0_8_249
*1274 FILLER_0_8_251
*1275 FILLER_0_8_263
*1276 FILLER_0_8_27
*1277 FILLER_0_8_275
*1278 FILLER_0_8_287
*1279 FILLER_0_8_29
*1280 FILLER_0_8_299
*1281 FILLER_0_8_3
*1282 FILLER_0_8_305
*1283 FILLER_0_8_307
*1284 FILLER_0_8_319
*1285 FILLER_0_8_61
*1286 FILLER_0_8_73
*1287 FILLER_0_8_85
*1288 FILLER_0_8_87
*1289 FILLER_0_8_99
*1290 FILLER_0_9_109
*1291 FILLER_0_9_113
*1292 FILLER_0_9_125
*1293 FILLER_0_9_137
*1294 FILLER_0_9_141
*1295 FILLER_0_9_15
*1296 FILLER_0_9_153
*1297 FILLER_0_9_165
*1298 FILLER_0_9_169
*1299 FILLER_0_9_181
*1300 FILLER_0_9_193
*1301 FILLER_0_9_197
*1302 FILLER_0_9_209
*1303 FILLER_0_9_221
*1304 FILLER_0_9_225
*1305 FILLER_0_9_237
*1306 FILLER_0_9_249
*1307 FILLER_0_9_253
*1308 FILLER_0_9_265
*1309 FILLER_0_9_27
*1310 FILLER_0_9_277
*1311 FILLER_0_9_281
*1312 FILLER_0_9_29
*1313 FILLER_0_9_293
*1314 FILLER_0_9_3
*1315 FILLER_0_9_305
*1316 FILLER_0_9_309
*1317 FILLER_0_9_321
*1318 FILLER_0_9_41
*1319 FILLER_0_9_53
*1320 FILLER_0_9_57
*1321 FILLER_0_9_69
*1322 FILLER_0_9_81
*1323 FILLER_0_9_85
*1324 FILLER_0_9_97
*1325 PHY_EDGE_ROW_0_Left_39
*1326 PHY_EDGE_ROW_0_Right_0
*1327 PHY_EDGE_ROW_10_1_Left_47
*1328 PHY_EDGE_ROW_10_1_Right_112
*1329 PHY_EDGE_ROW_10_2_Left_106
*1330 PHY_EDGE_ROW_10_2_Right_124
*1331 PHY_EDGE_ROW_10_3_Left_118
*1332 PHY_EDGE_ROW_10_3_Right_33
*1333 PHY_EDGE_ROW_11_1_Left_49
*1334 PHY_EDGE_ROW_11_1_Right_113
*1335 PHY_EDGE_ROW_11_2_Left_107
*1336 PHY_EDGE_ROW_11_2_Right_125
*1337 PHY_EDGE_ROW_11_3_Left_119
*1338 PHY_EDGE_ROW_11_3_Right_34
*1339 PHY_EDGE_ROW_12_1_Left_50
*1340 PHY_EDGE_ROW_12_1_Right_114
*1341 PHY_EDGE_ROW_12_2_Left_108
*1342 PHY_EDGE_ROW_12_2_Right_126
*1343 PHY_EDGE_ROW_12_3_Left_120
*1344 PHY_EDGE_ROW_12_3_Right_35
*1345 PHY_EDGE_ROW_13_1_Left_51
*1346 PHY_EDGE_ROW_13_1_Right_115
*1347 PHY_EDGE_ROW_13_2_Left_109
*1348 PHY_EDGE_ROW_13_2_Right_127
*1349 PHY_EDGE_ROW_13_3_Left_121
*1350 PHY_EDGE_ROW_13_3_Right_36
*1351 PHY_EDGE_ROW_14_1_Left_52
*1352 PHY_EDGE_ROW_14_1_Right_116
*1353 PHY_EDGE_ROW_14_2_Left_110
*1354 PHY_EDGE_ROW_14_2_Right_128
*1355 PHY_EDGE_ROW_14_3_Left_122
*1356 PHY_EDGE_ROW_14_3_Right_37
*1357 PHY_EDGE_ROW_15_1_Left_53
*1358 PHY_EDGE_ROW_15_1_Right_117
*1359 PHY_EDGE_ROW_15_2_Left_111
*1360 PHY_EDGE_ROW_15_2_Right_129
*1361 PHY_EDGE_ROW_15_3_Left_123
*1362 PHY_EDGE_ROW_15_3_Right_38
*1363 PHY_EDGE_ROW_16_Left_54
*1364 PHY_EDGE_ROW_16_Right_3
*1365 PHY_EDGE_ROW_17_Left_55
*1366 PHY_EDGE_ROW_17_Right_4
*1367 PHY_EDGE_ROW_18_Left_56
*1368 PHY_EDGE_ROW_18_Right_5
*1369 PHY_EDGE_ROW_19_Left_57
*1370 PHY_EDGE_ROW_19_Right_6
*1371 PHY_EDGE_ROW_1_Left_40
*1372 PHY_EDGE_ROW_1_Right_1
*1373 PHY_EDGE_ROW_20_Left_58
*1374 PHY_EDGE_ROW_20_Right_7
*1375 PHY_EDGE_ROW_21_Left_59
*1376 PHY_EDGE_ROW_21_Right_8
*1377 PHY_EDGE_ROW_22_Left_60
*1378 PHY_EDGE_ROW_22_Right_9
*1379 PHY_EDGE_ROW_23_Left_61
*1380 PHY_EDGE_ROW_23_Right_10
*1381 PHY_EDGE_ROW_24_Left_62
*1382 PHY_EDGE_ROW_24_Right_11
*1383 PHY_EDGE_ROW_25_Left_63
*1384 PHY_EDGE_ROW_25_Right_12
*1385 PHY_EDGE_ROW_26_Left_64
*1386 PHY_EDGE_ROW_26_Right_13
*1387 PHY_EDGE_ROW_27_Left_65
*1388 PHY_EDGE_ROW_27_Right_14
*1389 PHY_EDGE_ROW_28_Left_66
*1390 PHY_EDGE_ROW_28_Right_15
*1391 PHY_EDGE_ROW_29_Left_67
*1392 PHY_EDGE_ROW_29_Right_16
*1393 PHY_EDGE_ROW_2_1_Left_77
*1394 PHY_EDGE_ROW_2_1_Right_91
*1395 PHY_EDGE_ROW_2_2_Left_78
*1396 PHY_EDGE_ROW_2_2_Right_99
*1397 PHY_EDGE_ROW_2_3_Left_92
*1398 PHY_EDGE_ROW_2_3_Right_26
*1399 PHY_EDGE_ROW_30_Left_68
*1400 PHY_EDGE_ROW_30_Right_17
*1401 PHY_EDGE_ROW_31_Left_69
*1402 PHY_EDGE_ROW_31_Right_18
*1403 PHY_EDGE_ROW_32_Left_70
*1404 PHY_EDGE_ROW_32_Right_19
*1405 PHY_EDGE_ROW_33_Left_71
*1406 PHY_EDGE_ROW_33_Right_20
*1407 PHY_EDGE_ROW_34_Left_72
*1408 PHY_EDGE_ROW_34_Right_21
*1409 PHY_EDGE_ROW_35_Left_73
*1410 PHY_EDGE_ROW_35_Right_22
*1411 PHY_EDGE_ROW_36_Left_74
*1412 PHY_EDGE_ROW_36_Right_23
*1413 PHY_EDGE_ROW_37_Left_75
*1414 PHY_EDGE_ROW_37_Right_24
*1415 PHY_EDGE_ROW_38_Left_76
*1416 PHY_EDGE_ROW_38_Right_25
*1417 PHY_EDGE_ROW_3_1_Left_41
*1418 PHY_EDGE_ROW_3_1_Right_85
*1419 PHY_EDGE_ROW_3_2_Left_79