*SPEF "ieee 1481-1999"
*DESIGN "tt_um_async_proc_paulschulz"
*DATE "11:11:11 Fri 11 11, 1111"
*VENDOR "OpenRCX"
*PROGRAM "Parallel Extraction"
*VERSION "1.0"
*DESIGN_FLOW "NAME_SCOPE LOCAL" "PIN_CAP NONE"
*DIVIDER /
*DELIMITER :
*BUS_DELIMITER []
*T_UNIT 1 NS
*C_UNIT 1 PF
*R_UNIT 1 OHM
*L_UNIT 1 HENRY

*NAME_MAP
*3 clk
*4 ena
*5 rst_n
*6 ui_in[0]
*7 ui_in[1]
*8 ui_in[2]
*9 ui_in[3]
*10 ui_in[4]
*11 ui_in[5]
*12 ui_in[6]
*13 ui_in[7]
*14 uio_in[0]
*15 uio_in[1]
*16 uio_in[2]
*17 uio_in[3]
*18 uio_in[4]
*19 uio_in[5]
*20 uio_in[6]
*21 uio_in[7]
*22 net21
*23 net22
*24 net23
*25 net24
*26 net25
*27 net26
*28 net27
*29 net28
*30 net11
*31 net12
*32 net13
*33 net14
*34 net15
*35 net16
*36 net17
*37 net18
*38 uo_out[0]
*39 uo_out[1]
*40 uo_out[2]
*41 uo_out[3]
*42 net19
*43 net20
*44 uo_out[6]
*45 uo_out[7]
*46 _000_
*47 _001_
*48 _002_
*49 _004_
*50 _005_
*51 _006_
*52 _007_
*53 _008_
*54 _009_
*55 _010_
*56 _011_
*57 _012_
*58 _013_
*59 _014_
*60 _015_
*61 _016_
*62 _017_
*63 _018_
*64 _019_
*65 _020_
*66 _021_
*67 _022_
*68 _023_
*69 _024_
*70 _025_
*71 _026_
*72 _027_
*73 _028_
*74 _029_
*75 _030_
*76 _031_
*77 _032_
*78 _033_
*79 _034_
*80 _035_
*81 _036_
*82 _037_
*83 _038_
*84 _039_
*85 _040_
*86 _041_
*87 _042_
*88 _043_
*89 _044_
*90 _045_
*91 _046_
*92 _047_
*93 _048_
*94 _049_
*95 _050_
*96 _051_
*97 _052_
*98 _053_
*99 _054_
*100 _055_
*101 _056_
*102 _057_
*103 _058_
*104 _059_
*105 _060_
*106 _061_
*107 _062_
*108 _063_
*109 _064_
*110 _065_
*111 _066_
*112 _067_
*113 _068_
*114 _069_
*115 _070_
*116 _071_
*117 _072_
*118 _073_
*119 _074_
*120 _075_
*121 _076_
*122 _077_
*123 _078_
*124 _079_
*125 _080_
*126 _081_
*127 _082_
*128 _083_
*129 _084_
*130 block1\.buf_in1\[1\]
*131 block1\.buf_in1\[2\]
*132 block1\.buf_in1\[3\]
*133 block1\.buf_in2\[0\]
*134 block1\.buf_in2\[2\]
*135 block1\.buf_in2\[3\]
*136 block1\.buf_in3\[0\]
*137 block1\.buf_in3\[1\]
*138 block1\.buf_in3\[3\]
*139 block1\.buf_in4\[0\]
*140 block1\.buf_in4\[1\]
*141 block1\.buf_in4\[2\]
*142 block1\.in1\[1\]
*143 block1\.in1\[2\]
*144 block1\.in1\[3\]
*145 block1\.in2\[0\]
*146 block1\.in2\[2\]
*147 block1\.in2\[3\]
*148 block1\.in3\[0\]
*149 block1\.in3\[1\]
*150 block1\.in3\[3\]
*151 block1\.in4\[0\]
*152 block1\.in4\[1\]
*153 block1\.in4\[2\]
*154 block1\.node1\.lfsr1\.feedback
*155 block1\.node1\.lfsr1\.lfsr\[0\]
*156 block1\.node1\.lfsr1\.lfsr\[10\]
*157 block1\.node1\.lfsr1\.lfsr\[11\]
*158 block1\.node1\.lfsr1\.lfsr\[12\]
*159 block1\.node1\.lfsr1\.lfsr\[13\]
*160 block1\.node1\.lfsr1\.lfsr\[14\]
*161 block1\.node1\.lfsr1\.lfsr\[1\]
*162 block1\.node1\.lfsr1\.lfsr\[2\]
*163 block1\.node1\.lfsr1\.lfsr\[3\]
*164 block1\.node1\.lfsr1\.lfsr\[4\]
*165 block1\.node1\.lfsr1\.lfsr\[5\]
*166 block1\.node1\.lfsr1\.lfsr\[6\]
*167 block1\.node1\.lfsr1\.lfsr\[7\]
*168 block1\.node1\.lfsr1\.lfsr\[8\]
*169 block1\.node1\.lfsr1\.lfsr\[9\]
*170 block1\.node_proc
*171 block1\.node_rdy
*172 clknet_0_clk
*173 clknet_2_0__leaf_clk
*174 clknet_2_1__leaf_clk
*175 clknet_2_2__leaf_clk
*176 clknet_2_3__leaf_clk
*177 net1
*178 net10
*179 net2
*180 net29
*181 net3
*182 net30
*183 net31
*184 net32
*185 net33
*186 net34
*187 net35
*188 net36
*189 net37
*190 net38
*191 net39
*192 net4
*193 net40
*194 net41
*195 net42
*196 net43
*197 net44
*198 net45
*199 net46
*200 net47
*201 net48
*202 net49
*203 net5
*204 net50
*205 net51
*206 net52
*207 net53
*208 net54
*209 net55
*210 net56
*211 net57
*212 net58
*213 net59
*214 net6
*215 net60
*216 net61
*217 net62
*218 net63
*219 net7
*220 net8
*221 net9
*222 FILLER_0_0_109
*223 FILLER_0_0_113
*224 FILLER_0_0_125
*225 FILLER_0_0_137
*226 FILLER_0_0_141
*227 FILLER_0_0_15
*228 FILLER_0_0_153
*229 FILLER_0_0_165
*230 FILLER_0_0_169
*231 FILLER_0_0_181
*232 FILLER_0_0_193
*233 FILLER_0_0_197
*234 FILLER_0_0_209
*235 FILLER_0_0_221
*236 FILLER_0_0_225
*237 FILLER_0_0_237
*238 FILLER_0_0_249
*239 FILLER_0_0_253
*240 FILLER_0_0_265
*241 FILLER_0_0_27
*242 FILLER_0_0_277
*243 FILLER_0_0_281
*244 FILLER_0_0_29
*245 FILLER_0_0_293
*246 FILLER_0_0_3
*247 FILLER_0_0_305
*248 FILLER_0_0_309
*249 FILLER_0_0_321
*250 FILLER_0_0_333
*251 FILLER_0_0_337
*252 FILLER_0_0_349
*253 FILLER_0_0_41
*254 FILLER_0_0_53
*255 FILLER_0_0_57
*256 FILLER_0_0_69
*257 FILLER_0_0_81
*258 FILLER_0_0_85
*259 FILLER_0_0_97
*260 FILLER_0_10_109
*261 FILLER_0_10_121
*262 FILLER_0_10_133
*263 FILLER_0_10_139
*264 FILLER_0_10_141
*265 FILLER_0_10_15
*266 FILLER_0_10_153
*267 FILLER_0_10_165
*268 FILLER_0_10_177
*269 FILLER_0_10_189
*270 FILLER_0_10_195
*271 FILLER_0_10_197
*272 FILLER_0_10_209
*273 FILLER_0_10_221
*274 FILLER_0_10_233
*275 FILLER_0_10_245
*276 FILLER_0_10_251
*277 FILLER_0_10_253
*278 FILLER_0_10_265
*279 FILLER_0_10_27
*280 FILLER_0_10_277
*281 FILLER_0_10_289
*282 FILLER_0_10_29
*283 FILLER_0_10_3
*284 FILLER_0_10_301
*285 FILLER_0_10_307
*286 FILLER_0_10_309
*287 FILLER_0_10_321
*288 FILLER_0_10_333
*289 FILLER_0_10_345
*290 FILLER_0_10_41
*291 FILLER_0_10_53
*292 FILLER_0_10_65
*293 FILLER_0_10_77
*294 FILLER_0_10_83
*295 FILLER_0_10_85
*296 FILLER_0_10_97
*297 FILLER_0_11_105
*298 FILLER_0_11_111
*299 FILLER_0_11_113
*300 FILLER_0_11_125
*301 FILLER_0_11_137
*302 FILLER_0_11_149
*303 FILLER_0_11_15
*304 FILLER_0_11_161
*305 FILLER_0_11_167
*306 FILLER_0_11_169
*307 FILLER_0_11_181
*308 FILLER_0_11_193
*309 FILLER_0_11_205
*310 FILLER_0_11_217
*311 FILLER_0_11_223
*312 FILLER_0_11_225
*313 FILLER_0_11_237
*314 FILLER_0_11_249
*315 FILLER_0_11_261
*316 FILLER_0_11_27
*317 FILLER_0_11_273
*318 FILLER_0_11_279
*319 FILLER_0_11_281
*320 FILLER_0_11_293
*321 FILLER_0_11_3
*322 FILLER_0_11_305
*323 FILLER_0_11_317
*324 FILLER_0_11_329
*325 FILLER_0_11_335
*326 FILLER_0_11_337
*327 FILLER_0_11_349
*328 FILLER_0_11_39
*329 FILLER_0_11_51
*330 FILLER_0_11_55
*331 FILLER_0_11_57
*332 FILLER_0_11_69
*333 FILLER_0_11_81
*334 FILLER_0_11_93
*335 FILLER_0_12_109
*336 FILLER_0_12_121
*337 FILLER_0_12_133
*338 FILLER_0_12_139
*339 FILLER_0_12_141
*340 FILLER_0_12_15
*341 FILLER_0_12_153
*342 FILLER_0_12_165
*343 FILLER_0_12_177
*344 FILLER_0_12_189
*345 FILLER_0_12_195
*346 FILLER_0_12_197
*347 FILLER_0_12_209
*348 FILLER_0_12_221
*349 FILLER_0_12_233
*350 FILLER_0_12_245
*351 FILLER_0_12_251
*352 FILLER_0_12_253
*353 FILLER_0_12_265
*354 FILLER_0_12_27
*355 FILLER_0_12_277
*356 FILLER_0_12_289
*357 FILLER_0_12_29
*358 FILLER_0_12_3
*359 FILLER_0_12_301
*360 FILLER_0_12_307
*361 FILLER_0_12_309
*362 FILLER_0_12_321
*363 FILLER_0_12_333
*364 FILLER_0_12_345
*365 FILLER_0_12_41
*366 FILLER_0_12_53
*367 FILLER_0_12_65
*368 FILLER_0_12_77
*369 FILLER_0_12_83
*370 FILLER_0_12_85
*371 FILLER_0_12_97
*372 FILLER_0_13_105
*373 FILLER_0_13_111
*374 FILLER_0_13_113
*375 FILLER_0_13_125
*376 FILLER_0_13_137
*377 FILLER_0_13_149
*378 FILLER_0_13_15
*379 FILLER_0_13_161
*380 FILLER_0_13_167
*381 FILLER_0_13_169
*382 FILLER_0_13_181
*383 FILLER_0_13_193
*384 FILLER_0_13_205
*385 FILLER_0_13_217
*386 FILLER_0_13_223
*387 FILLER_0_13_225
*388 FILLER_0_13_237
*389 FILLER_0_13_249
*390 FILLER_0_13_261
*391 FILLER_0_13_27
*392 FILLER_0_13_273
*393 FILLER_0_13_279
*394 FILLER_0_13_281
*395 FILLER_0_13_293
*396 FILLER_0_13_3
*397 FILLER_0_13_305
*398 FILLER_0_13_317
*399 FILLER_0_13_329
*400 FILLER_0_13_335
*401 FILLER_0_13_337
*402 FILLER_0_13_349
*403 FILLER_0_13_39
*404 FILLER_0_13_51
*405 FILLER_0_13_55
*406 FILLER_0_13_57
*407 FILLER_0_13_69
*408 FILLER_0_13_81
*409 FILLER_0_13_93
*410 FILLER_0_14_109
*411 FILLER_0_14_121
*412 FILLER_0_14_133
*413 FILLER_0_14_139
*414 FILLER_0_14_141
*415 FILLER_0_14_15
*416 FILLER_0_14_153
*417 FILLER_0_14_165
*418 FILLER_0_14_177
*419 FILLER_0_14_189
*420 FILLER_0_14_195
*421 FILLER_0_14_197
*422 FILLER_0_14_209
*423 FILLER_0_14_221
*424 FILLER_0_14_233
*425 FILLER_0_14_245
*426 FILLER_0_14_251
*427 FILLER_0_14_253
*428 FILLER_0_14_265
*429 FILLER_0_14_27
*430 FILLER_0_14_277
*431 FILLER_0_14_289
*432 FILLER_0_14_29
*433 FILLER_0_14_3
*434 FILLER_0_14_301
*435 FILLER_0_14_307
*436 FILLER_0_14_309
*437 FILLER_0_14_321
*438 FILLER_0_14_333
*439 FILLER_0_14_345
*440 FILLER_0_14_41
*441 FILLER_0_14_53
*442 FILLER_0_14_65
*443 FILLER_0_14_77
*444 FILLER_0_14_83
*445 FILLER_0_14_85
*446 FILLER_0_14_97
*447 FILLER_0_15_105
*448 FILLER_0_15_111
*449 FILLER_0_15_113
*450 FILLER_0_15_125
*451 FILLER_0_15_137
*452 FILLER_0_15_149
*453 FILLER_0_15_15
*454 FILLER_0_15_161
*455 FILLER_0_15_167
*456 FILLER_0_15_169
*457 FILLER_0_15_181
*458 FILLER_0_15_193
*459 FILLER_0_15_205
*460 FILLER_0_15_217
*461 FILLER_0_15_223
*462 FILLER_0_15_225
*463 FILLER_0_15_237
*464 FILLER_0_15_249
*465 FILLER_0_15_261
*466 FILLER_0_15_27
*467 FILLER_0_15_273
*468 FILLER_0_15_279
*469 FILLER_0_15_281
*470 FILLER_0_15_293
*471 FILLER_0_15_3
*472 FILLER_0_15_305
*473 FILLER_0_15_317
*474 FILLER_0_15_329
*475 FILLER_0_15_335
*476 FILLER_0_15_337
*477 FILLER_0_15_349
*478 FILLER_0_15_39
*479 FILLER_0_15_51
*480 FILLER_0_15_55
*481 FILLER_0_15_57
*482 FILLER_0_15_69
*483 FILLER_0_15_81
*484 FILLER_0_15_93
*485 FILLER_0_16_109
*486 FILLER_0_16_121
*487 FILLER_0_16_133
*488 FILLER_0_16_139
*489 FILLER_0_16_141
*490 FILLER_0_16_15
*491 FILLER_0_16_153
*492 FILLER_0_16_165
*493 FILLER_0_16_177
*494 FILLER_0_16_189
*495 FILLER_0_16_195
*496 FILLER_0_16_197
*497 FILLER_0_16_209
*498 FILLER_0_16_221
*499 FILLER_0_16_233
*500 FILLER_0_16_245
*501 FILLER_0_16_251
*502 FILLER_0_16_253
*503 FILLER_0_16_265
*504 FILLER_0_16_27
*505 FILLER_0_16_277
*506 FILLER_0_16_289
*507 FILLER_0_16_29
*508 FILLER_0_16_3
*509 FILLER_0_16_301
*510 FILLER_0_16_307
*511 FILLER_0_16_309
*512 FILLER_0_16_321
*513 FILLER_0_16_333
*514 FILLER_0_16_345
*515 FILLER_0_16_41
*516 FILLER_0_16_53
*517 FILLER_0_16_65
*518 FILLER_0_16_77
*519 FILLER_0_16_83
*520 FILLER_0_16_85
*521 FILLER_0_16_97
*522 FILLER_0_17_105
*523 FILLER_0_17_111
*524 FILLER_0_17_113
*525 FILLER_0_17_125
*526 FILLER_0_17_137
*527 FILLER_0_17_149
*528 FILLER_0_17_15
*529 FILLER_0_17_161
*530 FILLER_0_17_167
*531 FILLER_0_17_169
*532 FILLER_0_17_181
*533 FILLER_0_17_193
*534 FILLER_0_17_205
*535 FILLER_0_17_217
*536 FILLER_0_17_223
*537 FILLER_0_17_225
*538 FILLER_0_17_237
*539 FILLER_0_17_249
*540 FILLER_0_17_261
*541 FILLER_0_17_27
*542 FILLER_0_17_273
*543 FILLER_0_17_279
*544 FILLER_0_17_281
*545 FILLER_0_17_293
*546 FILLER_0_17_3
*547 FILLER_0_17_305
*548 FILLER_0_17_317
*549 FILLER_0_17_329
*550 FILLER_0_17_335
*551 FILLER_0_17_337
*552 FILLER_0_17_349
*553 FILLER_0_17_39
*554 FILLER_0_17_51
*555 FILLER_0_17_55
*556 FILLER_0_17_57
*557 FILLER_0_17_69
*558 FILLER_0_17_81
*559 FILLER_0_17_93
*560 FILLER_0_18_109
*561 FILLER_0_18_121
*562 FILLER_0_18_133
*563 FILLER_0_18_139
*564 FILLER_0_18_141
*565 FILLER_0_18_15
*566 FILLER_0_18_153
*567 FILLER_0_18_165
*568 FILLER_0_18_177
*569 FILLER_0_18_189
*570 FILLER_0_18_195
*571 FILLER_0_18_197
*572 FILLER_0_18_209
*573 FILLER_0_18_221
*574 FILLER_0_18_233
*575 FILLER_0_18_245
*576 FILLER_0_18_251
*577 FILLER_0_18_253
*578 FILLER_0_18_265
*579 FILLER_0_18_27
*580 FILLER_0_18_277
*581 FILLER_0_18_289
*582 FILLER_0_18_29
*583 FILLER_0_18_3
*584 FILLER_0_18_301
*585 FILLER_0_18_307
*586 FILLER_0_18_309
*587 FILLER_0_18_321
*588 FILLER_0_18_333
*589 FILLER_0_18_345
*590 FILLER_0_18_41
*591 FILLER_0_18_53
*592 FILLER_0_18_65
*593 FILLER_0_18_77
*594 FILLER_0_18_83
*595 FILLER_0_18_85
*596 FILLER_0_18_97
*597 FILLER_0_19_105
*598 FILLER_0_19_111
*599 FILLER_0_19_113
*600 FILLER_0_19_125
*601 FILLER_0_19_137
*602 FILLER_0_19_149
*603 FILLER_0_19_15
*604 FILLER_0_19_161
*605 FILLER_0_19_167
*606 FILLER_0_19_169
*607 FILLER_0_19_181
*608 FILLER_0_19_193
*609 FILLER_0_19_205
*610 FILLER_0_19_217
*611 FILLER_0_19_223
*612 FILLER_0_19_225
*613 FILLER_0_19_237
*614 FILLER_0_19_249
*615 FILLER_0_19_261
*616 FILLER_0_19_27
*617 FILLER_0_19_273
*618 FILLER_0_19_279
*619 FILLER_0_19_281
*620 FILLER_0_19_293
*621 FILLER_0_19_3
*622 FILLER_0_19_305
*623 FILLER_0_19_317
*624 FILLER_0_19_329
*625 FILLER_0_19_335
*626 FILLER_0_19_337
*627 FILLER_0_19_349
*628 FILLER_0_19_39
*629 FILLER_0_19_51
*630 FILLER_0_19_55
*631 FILLER_0_19_57
*632 FILLER_0_19_69
*633 FILLER_0_19_81
*634 FILLER_0_19_93
*635 FILLER_0_1_105
*636 FILLER_0_1_111
*637 FILLER_0_1_113
*638 FILLER_0_1_125
*639 FILLER_0_1_137
*640 FILLER_0_1_149
*641 FILLER_0_1_15
*642 FILLER_0_1_161
*643 FILLER_0_1_167
*644 FILLER_0_1_169
*645 FILLER_0_1_181
*646 FILLER_0_1_193
*647 FILLER_0_1_205
*648 FILLER_0_1_217
*649 FILLER_0_1_223
*650 FILLER_0_1_225
*651 FILLER_0_1_237
*652 FILLER_0_1_249
*653 FILLER_0_1_261
*654 FILLER_0_1_27
*655 FILLER_0_1_273
*656 FILLER_0_1_279
*657 FILLER_0_1_281
*658 FILLER_0_1_293
*659 FILLER_0_1_3
*660 FILLER_0_1_305
*661 FILLER_0_1_317
*662 FILLER_0_1_329
*663 FILLER_0_1_335
*664 FILLER_0_1_337
*665 FILLER_0_1_349
*666 FILLER_0_1_39
*667 FILLER_0_1_51
*668 FILLER_0_1_55
*669 FILLER_0_1_57
*670 FILLER_0_1_69
*671 FILLER_0_1_81
*672 FILLER_0_1_93
*673 FILLER_0_20_109
*674 FILLER_0_20_121
*675 FILLER_0_20_133
*676 FILLER_0_20_139
*677 FILLER_0_20_141
*678 FILLER_0_20_15
*679 FILLER_0_20_153
*680 FILLER_0_20_165
*681 FILLER_0_20_177
*682 FILLER_0_20_189
*683 FILLER_0_20_195
*684 FILLER_0_20_197
*685 FILLER_0_20_209
*686 FILLER_0_20_221
*687 FILLER_0_20_233
*688 FILLER_0_20_245
*689 FILLER_0_20_251
*690 FILLER_0_20_253
*691 FILLER_0_20_265
*692 FILLER_0_20_27
*693 FILLER_0_20_277
*694 FILLER_0_20_289
*695 FILLER_0_20_29
*696 FILLER_0_20_3
*697 FILLER_0_20_301
*698 FILLER_0_20_307
*699 FILLER_0_20_309
*700 FILLER_0_20_321
*701 FILLER_0_20_333
*702 FILLER_0_20_345
*703 FILLER_0_20_41
*704 FILLER_0_20_53
*705 FILLER_0_20_65
*706 FILLER_0_20_77
*707 FILLER_0_20_83
*708 FILLER_0_20_85
*709 FILLER_0_20_97
*710 FILLER_0_21_105
*711 FILLER_0_21_111
*712 FILLER_0_21_113
*713 FILLER_0_21_125
*714 FILLER_0_21_137
*715 FILLER_0_21_149
*716 FILLER_0_21_15
*717 FILLER_0_21_161
*718 FILLER_0_21_167
*719 FILLER_0_21_169
*720 FILLER_0_21_181
*721 FILLER_0_21_193
*722 FILLER_0_21_205
*723 FILLER_0_21_217
*724 FILLER_0_21_223
*725 FILLER_0_21_225
*726 FILLER_0_21_237
*727 FILLER_0_21_249
*728 FILLER_0_21_261
*729 FILLER_0_21_27
*730 FILLER_0_21_273
*731 FILLER_0_21_279
*732 FILLER_0_21_281
*733 FILLER_0_21_293
*734 FILLER_0_21_3
*735 FILLER_0_21_305
*736 FILLER_0_21_317
*737 FILLER_0_21_329
*738 FILLER_0_21_335
*739 FILLER_0_21_337
*740 FILLER_0_21_349
*741 FILLER_0_21_39
*742 FILLER_0_21_51
*743 FILLER_0_21_55
*744 FILLER_0_21_57
*745 FILLER_0_21_69
*746 FILLER_0_21_81
*747 FILLER_0_21_93
*748 FILLER_0_22_109
*749 FILLER_0_22_121
*750 FILLER_0_22_133
*751 FILLER_0_22_139
*752 FILLER_0_22_141
*753 FILLER_0_22_15
*754 FILLER_0_22_153
*755 FILLER_0_22_165
*756 FILLER_0_22_177
*757 FILLER_0_22_189
*758 FILLER_0_22_195
*759 FILLER_0_22_197
*760 FILLER_0_22_209
*761 FILLER_0_22_221
*762 FILLER_0_22_233
*763 FILLER_0_22_245
*764 FILLER_0_22_251
*765 FILLER_0_22_253
*766 FILLER_0_22_265
*767 FILLER_0_22_27
*768 FILLER_0_22_277
*769 FILLER_0_22_289
*770 FILLER_0_22_29
*771 FILLER_0_22_3
*772 FILLER_0_22_301
*773 FILLER_0_22_307
*774 FILLER_0_22_309
*775 FILLER_0_22_321
*776 FILLER_0_22_333
*777 FILLER_0_22_345
*778 FILLER_0_22_41
*779 FILLER_0_22_53
*780 FILLER_0_22_65
*781 FILLER_0_22_77
*782 FILLER_0_22_83
*783 FILLER_0_22_85
*784 FILLER_0_22_97
*785 FILLER_0_23_105
*786 FILLER_0_23_111
*787 FILLER_0_23_113
*788 FILLER_0_23_125
*789 FILLER_0_23_137
*790 FILLER_0_23_149
*791 FILLER_0_23_15
*792 FILLER_0_23_161
*793 FILLER_0_23_167
*794 FILLER_0_23_169
*795 FILLER_0_23_181
*796 FILLER_0_23_193
*797 FILLER_0_23_205
*798 FILLER_0_23_217
*799 FILLER_0_23_223
*800 FILLER_0_23_225
*801 FILLER_0_23_237
*802 FILLER_0_23_249
*803 FILLER_0_23_261
*804 FILLER_0_23_27
*805 FILLER_0_23_273
*806 FILLER_0_23_279
*807 FILLER_0_23_281
*808 FILLER_0_23_293
*809 FILLER_0_23_3
*810 FILLER_0_23_305
*811 FILLER_0_23_317
*812 FILLER_0_23_329
*813 FILLER_0_23_335
*814 FILLER_0_23_337
*815 FILLER_0_23_349
*816 FILLER_0_23_39
*817 FILLER_0_23_51
*818 FILLER_0_23_55
*819 FILLER_0_23_57
*820 FILLER_0_23_69
*821 FILLER_0_23_81
*822 FILLER_0_23_93
*823 FILLER_0_24_109
*824 FILLER_0_24_121
*825 FILLER_0_24_133
*826 FILLER_0_24_139
*827 FILLER_0_24_141
*828 FILLER_0_24_15
*829 FILLER_0_24_153
*830 FILLER_0_24_165
*831 FILLER_0_24_177
*832 FILLER_0_24_189
*833 FILLER_0_24_195
*834 FILLER_0_24_197
*835 FILLER_0_24_209
*836 FILLER_0_24_221
*837 FILLER_0_24_233
*838 FILLER_0_24_245
*839 FILLER_0_24_251
*840 FILLER_0_24_253
*841 FILLER_0_24_265
*842 FILLER_0_24_27
*843 FILLER_0_24_277
*844 FILLER_0_24_289
*845 FILLER_0_24_29
*846 FILLER_0_24_3
*847 FILLER_0_24_301
*848 FILLER_0_24_307
*849 FILLER_0_24_309
*850 FILLER_0_24_321
*851 FILLER_0_24_333
*852 FILLER_0_24_345
*853 FILLER_0_24_41
*854 FILLER_0_24_53
*855 FILLER_0_24_65
*856 FILLER_0_24_77
*857 FILLER_0_24_83
*858 FILLER_0_24_85
*859 FILLER_0_24_97
*860 FILLER_0_25_105
*861 FILLER_0_25_111
*862 FILLER_0_25_113
*863 FILLER_0_25_125
*864 FILLER_0_25_137
*865 FILLER_0_25_149
*866 FILLER_0_25_15
*867 FILLER_0_25_161
*868 FILLER_0_25_167
*869 FILLER_0_25_169
*870 FILLER_0_25_181
*871 FILLER_0_25_193
*872 FILLER_0_25_205
*873 FILLER_0_25_217
*874 FILLER_0_25_223
*875 FILLER_0_25_225
*876 FILLER_0_25_237
*877 FILLER_0_25_249
*878 FILLER_0_25_261
*879 FILLER_0_25_27
*880 FILLER_0_25_273
*881 FILLER_0_25_279
*882 FILLER_0_25_281
*883 FILLER_0_25_293
*884 FILLER_0_25_3
*885 FILLER_0_25_305
*886 FILLER_0_25_317
*887 FILLER_0_25_329
*888 FILLER_0_25_335
*889 FILLER_0_25_337
*890 FILLER_0_25_349
*891 FILLER_0_25_39
*892 FILLER_0_25_51
*893 FILLER_0_25_55
*894 FILLER_0_25_57
*895 FILLER_0_25_69
*896 FILLER_0_25_81
*897 FILLER_0_25_93
*898 FILLER_0_26_109
*899 FILLER_0_26_121
*900 FILLER_0_26_133
*901 FILLER_0_26_139
*902 FILLER_0_26_141
*903 FILLER_0_26_15
*904 FILLER_0_26_153
*905 FILLER_0_26_165
*906 FILLER_0_26_177
*907 FILLER_0_26_189
*908 FILLER_0_26_195
*909 FILLER_0_26_197
*910 FILLER_0_26_209
*911 FILLER_0_26_221
*912 FILLER_0_26_233
*913 FILLER_0_26_245
*914 FILLER_0_26_251
*915 FILLER_0_26_253
*916 FILLER_0_26_265
*917 FILLER_0_26_27
*918 FILLER_0_26_277
*919 FILLER_0_26_289
*920 FILLER_0_26_29
*921 FILLER_0_26_3
*922 FILLER_0_26_301
*923 FILLER_0_26_307
*924 FILLER_0_26_309
*925 FILLER_0_26_321
*926 FILLER_0_26_333
*927 FILLER_0_26_345
*928 FILLER_0_26_41
*929 FILLER_0_26_53
*930 FILLER_0_26_65
*931 FILLER_0_26_77
*932 FILLER_0_26_83
*933 FILLER_0_26_85
*934 FILLER_0_26_97
*935 FILLER_0_27_105
*936 FILLER_0_27_111
*937 FILLER_0_27_113
*938 FILLER_0_27_125
*939 FILLER_0_27_137
*940 FILLER_0_27_149
*941 FILLER_0_27_15
*942 FILLER_0_27_157
*943 FILLER_0_27_166
*944 FILLER_0_27_169
*945 FILLER_0_27_181
*946 FILLER_0_27_193
*947 FILLER_0_27_205
*948 FILLER_0_27_217
*949 FILLER_0_27_223
*950 FILLER_0_27_225
*951 FILLER_0_27_237
*952 FILLER_0_27_249
*953 FILLER_0_27_261
*954 FILLER_0_27_27
*955 FILLER_0_27_273
*956 FILLER_0_27_279
*957 FILLER_0_27_281
*958 FILLER_0_27_293
*959 FILLER_0_27_3
*960 FILLER_0_27_305
*961 FILLER_0_27_317
*962 FILLER_0_27_329
*963 FILLER_0_27_335
*964 FILLER_0_27_337
*965 FILLER_0_27_349
*966 FILLER_0_27_39
*967 FILLER_0_27_51
*968 FILLER_0_27_55
*969 FILLER_0_27_57
*970 FILLER_0_27_69
*971 FILLER_0_27_81
*972 FILLER_0_27_93
*973 FILLER_0_28_109
*974 FILLER_0_28_121
*975 FILLER_0_28_141
*976 FILLER_0_28_15
*977 FILLER_0_28_161
*978 FILLER_0_28_179
*979 FILLER_0_28_191
*980 FILLER_0_28_195
*981 FILLER_0_28_197
*982 FILLER_0_28_209
*983 FILLER_0_28_221
*984 FILLER_0_28_233
*985 FILLER_0_28_245
*986 FILLER_0_28_251
*987 FILLER_0_28_253
*988 FILLER_0_28_265
*989 FILLER_0_28_27
*990 FILLER_0_28_277
*991 FILLER_0_28_289
*992 FILLER_0_28_29
*993 FILLER_0_28_3
*994 FILLER_0_28_301
*995 FILLER_0_28_307
*996 FILLER_0_28_309
*997 FILLER_0_28_321
*998 FILLER_0_28_333
*999 FILLER_0_28_345
*1000 FILLER_0_28_41
*1001 FILLER_0_28_53
*1002 FILLER_0_28_65
*1003 FILLER_0_28_77
*1004 FILLER_0_28_83
*1005 FILLER_0_28_85
*1006 FILLER_0_28_97
*1007 FILLER_0_29_105
*1008 FILLER_0_29_111
*1009 FILLER_0_29_113
*1010 FILLER_0_29_117
*1011 FILLER_0_29_15
*1012 FILLER_0_29_162
*1013 FILLER_0_29_193
*1014 FILLER_0_29_205
*1015 FILLER_0_29_217
*1016 FILLER_0_29_223
*1017 FILLER_0_29_225
*1018 FILLER_0_29_254
*1019 FILLER_0_29_266
*1020 FILLER_0_29_27
*1021 FILLER_0_29_278
*1022 FILLER_0_29_281
*1023 FILLER_0_29_3
*1024 FILLER_0_29_301
*1025 FILLER_0_29_313
*1026 FILLER_0_29_325
*1027 FILLER_0_29_333
*1028 FILLER_0_29_337
*1029 FILLER_0_29_349
*1030 FILLER_0_29_39
*1031 FILLER_0_29_51
*1032 FILLER_0_29_55
*1033 FILLER_0_29_57
*1034 FILLER_0_29_69
*1035 FILLER_0_29_81
*1036 FILLER_0_29_93
*1037 FILLER_0_2_109
*1038 FILLER_0_2_121
*1039 FILLER_0_2_133
*1040 FILLER_0_2_139
*1041 FILLER_0_2_141
*1042 FILLER_0_2_15
*1043 FILLER_0_2_153
*1044 FILLER_0_2_165
*1045 FILLER_0_2_177
*1046 FILLER_0_2_189
*1047 FILLER_0_2_195
*1048 FILLER_0_2_197
*1049 FILLER_0_2_209
*1050 FILLER_0_2_221
*1051 FILLER_0_2_233
*1052 FILLER_0_2_245
*1053 FILLER_0_2_251
*1054 FILLER_0_2_253
*1055 FILLER_0_2_265
*1056 FILLER_0_2_27
*1057 FILLER_0_2_277
*1058 FILLER_0_2_289
*1059 FILLER_0_2_29
*1060 FILLER_0_2_3
*1061 FILLER_0_2_301
*1062 FILLER_0_2_307
*1063 FILLER_0_2_309
*1064 FILLER_0_2_321
*1065 FILLER_0_2_333
*1066 FILLER_0_2_345
*1067 FILLER_0_2_41
*1068 FILLER_0_2_53
*1069 FILLER_0_2_65
*1070 FILLER_0_2_77
*1071 FILLER_0_2_83
*1072 FILLER_0_2_85
*1073 FILLER_0_2_97
*1074 FILLER_0_30_109
*1075 FILLER_0_30_136
*1076 FILLER_0_30_141
*1077 FILLER_0_30_15
*1078 FILLER_0_30_168
*1079 FILLER_0_30_205
*1080 FILLER_0_30_213
*1081 FILLER_0_30_218
*1082 FILLER_0_30_229
*1083 FILLER_0_30_250
*1084 FILLER_0_30_27
*1085 FILLER_0_30_272
*1086 FILLER_0_30_29
*1087 FILLER_0_30_3
*1088 FILLER_0_30_302
*1089 FILLER_0_30_309
*1090 FILLER_0_30_321
*1091 FILLER_0_30_333
*1092 FILLER_0_30_345
*1093 FILLER_0_30_41
*1094 FILLER_0_30_53
*1095 FILLER_0_30_65
*1096 FILLER_0_30_77
*1097 FILLER_0_30_83
*1098 FILLER_0_30_85
*1099 FILLER_0_30_97
*1100 FILLER_0_31_105
*1101 FILLER_0_31_111
*1102 FILLER_0_31_113
*1103 FILLER_0_31_121
*1104 FILLER_0_31_147
*1105 FILLER_0_31_15
*1106 FILLER_0_31_159
*1107 FILLER_0_31_167
*1108 FILLER_0_31_169
*1109 FILLER_0_31_187
*1110 FILLER_0_31_222
*1111 FILLER_0_31_249
*1112 FILLER_0_31_27
*1113 FILLER_0_31_286
*1114 FILLER_0_31_3
*1115 FILLER_0_31_311
*1116 FILLER_0_31_323
*1117 FILLER_0_31_335
*1118 FILLER_0_31_337
*1119 FILLER_0_31_349
*1120 FILLER_0_31_39
*1121 FILLER_0_31_51
*1122 FILLER_0_31_55
*1123 FILLER_0_31_57
*1124 FILLER_0_31_69
*1125 FILLER_0_31_81
*1126 FILLER_0_31_93
*1127 FILLER_0_32_109
*1128 FILLER_0_32_121
*1129 FILLER_0_32_139
*1130 FILLER_0_32_15
*1131 FILLER_0_32_156
*1132 FILLER_0_32_168
*1133 FILLER_0_32_184
*1134 FILLER_0_32_211
*1135 FILLER_0_32_217
*1136 FILLER_0_32_222
*1137 FILLER_0_32_230
*1138 FILLER_0_32_251
*1139 FILLER_0_32_27
*1140 FILLER_0_32_276
*1141 FILLER_0_32_29
*1142 FILLER_0_32_290
*1143 FILLER_0_32_3
*1144 FILLER_0_32_307
*1145 FILLER_0_32_309
*1146 FILLER_0_32_321
*1147 FILLER_0_32_333
*1148 FILLER_0_32_345
*1149 FILLER_0_32_41
*1150 FILLER_0_32_53
*1151 FILLER_0_32_65
*1152 FILLER_0_32_77
*1153 FILLER_0_32_83
*1154 FILLER_0_32_85
*1155 FILLER_0_32_97
*1156 FILLER_0_33_105
*1157 FILLER_0_33_111
*1158 FILLER_0_33_113
*1159 FILLER_0_33_117
*1160 FILLER_0_33_133
*1161 FILLER_0_33_15
*1162 FILLER_0_33_161
*1163 FILLER_0_33_167
*1164 FILLER_0_33_169
*1165 FILLER_0_33_211
*1166 FILLER_0_33_223
*1167 FILLER_0_33_225
*1168 FILLER_0_33_248
*1169 FILLER_0_33_262
*1170 FILLER_0_33_27
*1171 FILLER_0_33_270
*1172 FILLER_0_33_276
*1173 FILLER_0_33_3
*1174 FILLER_0_33_308
*1175 FILLER_0_33_316
*1176 FILLER_0_33_333
*1177 FILLER_0_33_344
*1178 FILLER_0_33_350
*1179 FILLER_0_33_39
*1180 FILLER_0_33_51
*1181 FILLER_0_33_55
*1182 FILLER_0_33_57
*1183 FILLER_0_33_69
*1184 FILLER_0_33_81
*1185 FILLER_0_33_93
*1186 FILLER_0_34_109
*1187 FILLER_0_34_121
*1188 FILLER_0_34_141
*1189 FILLER_0_34_15
*1190 FILLER_0_34_162
*1191 FILLER_0_34_174
*1192 FILLER_0_34_182
*1193 FILLER_0_34_227
*1194 FILLER_0_34_233
*1195 FILLER_0_34_247
*1196 FILLER_0_34_251
*1197 FILLER_0_34_253
*1198 FILLER_0_34_265
*1199 FILLER_0_34_27
*1200 FILLER_0_34_282
*1201 FILLER_0_34_29
*1202 FILLER_0_34_3
*1203 FILLER_0_34_309
*1204 FILLER_0_34_314
*1205 FILLER_0_34_348
*1206 FILLER_0_34_41
*1207 FILLER_0_34_53
*1208 FILLER_0_34_65
*1209 FILLER_0_34_77
*1210 FILLER_0_34_83
*1211 FILLER_0_34_85
*1212 FILLER_0_34_97
*1213 FILLER_0_35_105
*1214 FILLER_0_35_111
*1215 FILLER_0_35_113
*1216 FILLER_0_35_15
*1217 FILLER_0_35_164
*1218 FILLER_0_35_169
*1219 FILLER_0_35_181
*1220 FILLER_0_35_225
*1221 FILLER_0_35_251
*1222 FILLER_0_35_257
*1223 FILLER_0_35_264
*1224 FILLER_0_35_27
*1225 FILLER_0_35_276
*1226 FILLER_0_35_297
*1227 FILLER_0_35_3
*1228 FILLER_0_35_305
*1229 FILLER_0_35_311
*1230 FILLER_0_35_315
*1231 FILLER_0_35_340
*1232 FILLER_0_35_346
*1233 FILLER_0_35_350
*1234 FILLER_0_35_39
*1235 FILLER_0_35_51
*1236 FILLER_0_35_55
*1237 FILLER_0_35_57
*1238 FILLER_0_35_69
*1239 FILLER_0_35_81
*1240 FILLER_0_35_93
*1241 FILLER_0_36_109
*1242 FILLER_0_36_121
*1243 FILLER_0_36_129
*1244 FILLER_0_36_141
*1245 FILLER_0_36_15
*1246 FILLER_0_36_169
*1247 FILLER_0_36_194
*1248 FILLER_0_36_208
*1249 FILLER_0_36_253
*1250 FILLER_0_36_27
*1251 FILLER_0_36_273
*1252 FILLER_0_36_280
*1253 FILLER_0_36_29
*1254 FILLER_0_36_293
*1255 FILLER_0_36_3
*1256 FILLER_0_36_307
*1257 FILLER_0_36_314
*1258 FILLER_0_36_349
*1259 FILLER_0_36_41
*1260 FILLER_0_36_53
*1261 FILLER_0_36_65
*1262 FILLER_0_36_77
*1263 FILLER_0_36_83
*1264 FILLER_0_36_85
*1265 FILLER_0_36_97
*1266 FILLER_0_37_105
*1267 FILLER_0_37_111
*1268 FILLER_0_37_113
*1269 FILLER_0_37_125
*1270 FILLER_0_37_137
*1271 FILLER_0_37_15
*1272 FILLER_0_37_165
*1273 FILLER_0_37_169
*1274 FILLER_0_37_176
*1275 FILLER_0_37_218
*1276 FILLER_0_37_241
*1277 FILLER_0_37_27
*1278 FILLER_0_37_274
*1279 FILLER_0_37_284
*1280 FILLER_0_37_3
*1281 FILLER_0_37_301
*1282 FILLER_0_37_310
*1283 FILLER_0_37_348
*1284 FILLER_0_37_39
*1285 FILLER_0_37_51
*1286 FILLER_0_37_55
*1287 FILLER_0_37_57
*1288 FILLER_0_37_69
*1289 FILLER_0_37_81
*1290 FILLER_0_37_93
*1291 FILLER_0_38_104
*1292 FILLER_0_38_110
*1293 FILLER_0_38_116
*1294 FILLER_0_38_122
*1295 FILLER_0_38_128
*1296 FILLER_0_38_134
*1297 FILLER_0_38_141
*1298 FILLER_0_38_15
*1299 FILLER_0_38_158
*1300 FILLER_0_38_166
*1301 FILLER_0_38_189
*1302 FILLER_0_38_195
*1303 FILLER_0_38_204
*1304 FILLER_0_38_216
*1305 FILLER_0_38_225
*1306 FILLER_0_38_232
*1307 FILLER_0_38_244
*1308 FILLER_0_38_248
*1309 FILLER_0_38_253
*1310 FILLER_0_38_27
*1311 FILLER_0_38_278
*1312 FILLER_0_38_281
*1313 FILLER_0_38_29
*1314 FILLER_0_38_3
*1315 FILLER_0_38_300
*1316 FILLER_0_38_315
*1317 FILLER_0_38_337
*1318 FILLER_0_38_349
*1319 FILLER_0_38_41
*1320 FILLER_0_38_53
*1321 FILLER_0_38_57
*1322 FILLER_0_38_68
*1323 FILLER_0_38_74
*1324 FILLER_0_38_80
*1325 FILLER_0_38_88
*1326 FILLER_0_38_92
*1327 FILLER_0_38_98
*1328 FILLER_0_3_105
*1329 FILLER_0_3_111
*1330 FILLER_0_3_113
*1331 FILLER_0_3_125
*1332 FILLER_0_3_137
*1333 FILLER_0_3_149
*1334 FILLER_0_3_15
*1335 FILLER_0_3_161
*1336 FILLER_0_3_167
*1337 FILLER_0_3_169
*1338 FILLER_0_3_181
*1339 FILLER_0_3_193
*1340 FILLER_0_3_205
*1341 FILLER_0_3_217
*1342 FILLER_0_3_223
*1343 FILLER_0_3_225
*1344 FILLER_0_3_237
*1345 FILLER_0_3_249
*1346 FILLER_0_3_261
*1347 FILLER_0_3_27
*1348 FILLER_0_3_273
*1349 FILLER_0_3_279
*1350 FILLER_0_3_281
*1351 FILLER_0_3_293
*1352 FILLER_0_3_3
*1353 FILLER_0_3_305
*1354 FILLER_0_3_317
*1355 FILLER_0_3_329
*1356 FILLER_0_3_335
*1357 FILLER_0_3_337
*1358 FILLER_0_3_349
*1359 FILLER_0_3_39
*1360 FILLER_0_3_51
*1361 FILLER_0_3_55
*1362 FILLER_0_3_57
*1363 FILLER_0_3_69
*1364 FILLER_0_3_81
*1365 FILLER_0_3_93
*1366 FILLER_0_4_109
*1367 FILLER_0_4_121
*1368 FILLER_0_4_133
*1369 FILLER_0_4_139
*1370 FILLER_0_4_141
*1371 FILLER_0_4_15
*1372 FILLER_0_4_153
*1373 FILLER_0_4_165
*1374 FILLER_0_4_177
*1375 FILLER_0_4_189
*1376 FILLER_0_4_195
*1377 FILLER_0_4_197
*1378 FILLER_0_4_209
*1379 FILLER_0_4_221
*1380 FILLER_0_4_233
*1381 FILLER_0_4_245
*1382 FILLER_0_4_251
*1383 FILLER_0_4_253
*1384 FILLER_0_4_265
*1385 FILLER_0_4_27
*1386 FILLER_0_4_277
*1387 FILLER_0_4_289
*1388 FILLER_0_4_29
*1389 FILLER_0_4_3
*1390 FILLER_0_4_301
*1391 FILLER_0_4_307
*1392 FILLER_0_4_309
*1393 FILLER_0_4_321
*1394 FILLER_0_4_333
*1395 FILLER_0_4_345
*1396 FILLER_0_4_41
*1397 FILLER_0_4_53
*1398 FILLER_0_4_65
*1399 FILLER_0_4_77
*1400 FILLER_0_4_83
*1401 FILLER_0_4_85
*1402 FILLER_0_4_97
*1403 FILLER_0_5_105
*1404 FILLER_0_5_111
*1405 FILLER_0_5_113
*1406 FILLER_0_5_125
*1407 FILLER_0_5_137
*1408 FILLER_0_5_149
*1409 FILLER_0_5_15
*1410 FILLER_0_5_161
*1411 FILLER_0_5_167
*1412 FILLER_0_5_169
*1413 FILLER_0_5_181
*1414 FILLER_0_5_193
*1415 FILLER_0_5_205
*1416 FILLER_0_5_217
*1417 FILLER_0_5_223
*1418 FILLER_0_5_225
*1419 FILLER_0_5_237
*1420 FILLER_0_5_249
*1421 FILLER_0_5_261
*1422 FILLER_0_5_27
*1423 FILLER_0_5_273
*1424 FILLER_0_5_279
*1425 FILLER_0_5_281
*1426 FILLER_0_5_293
*1427 FILLER_0_5_3
*1428 FILLER_0_5_305
*1429 FILLER_0_5_317
*1430 FILLER_0_5_329
*1431 FILLER_0_5_335
*1432 FILLER_0_5_337
*1433 FILLER_0_5_349
*1434 FILLER_0_5_39
*1435 FILLER_0_5_51
*1436 FILLER_0_5_55
*1437 FILLER_0_5_57
*1438 FILLER_0_5_69
*1439 FILLER_0_5_81
*1440 FILLER_0_5_93
*1441 FILLER_0_6_109
*1442 FILLER_0_6_121
*1443 FILLER_0_6_133
*1444 FILLER_0_6_139
*1445 FILLER_0_6_141
*1446 FILLER_0_6_15
*1447 FILLER_0_6_153
*1448 FILLER_0_6_165
*1449 FILLER_0_6_177
*1450 FILLER_0_6_189
*1451 FILLER_0_6_195
*1452 FILLER_0_6_197
*1453 FILLER_0_6_209
*1454 FILLER_0_6_221
*1455 FILLER_0_6_233
*1456 FILLER_0_6_245
*1457 FILLER_0_6_251
*1458 FILLER_0_6_253
*1459 FILLER_0_6_265
*1460 FILLER_0_6_27
*1461 FILLER_0_6_277
*1462 FILLER_0_6_289
*1463 FILLER_0_6_29
*1464 FILLER_0_6_3
*1465 FILLER_0_6_301
*1466 FILLER_0_6_307
*1467 FILLER_0_6_309
*1468 FILLER_0_6_321
*1469 FILLER_0_6_333
*1470 FILLER_0_6_345
*1471 FILLER_0_6_41
*1472 FILLER_0_6_53
*1473 FILLER_0_6_65
*1474 FILLER_0_6_77
*1475 FILLER_0_6_83
*1476 FILLER_0_6_85
*1477 FILLER_0_6_97
*1478 FILLER_0_7_105
*1479 FILLER_0_7_111
*1480 FILLER_0_7_113
*1481 FILLER_0_7_125
*1482 FILLER_0_7_137
*1483 FILLER_0_7_149
*1484 FILLER_0_7_15
*1485 FILLER_0_7_161
*1486 FILLER_0_7_167
*1487 FILLER_0_7_169
*1488 FILLER_0_7_181
*1489 FILLER_0_7_193
*1490 FILLER_0_7_205
*1491 FILLER_0_7_217
*1492 FILLER_0_7_223