*SPEF "ieee 1481-1999"
*DESIGN "tt_um_async_proc_paulschulz"
*DATE "11:11:11 Fri 11 11, 1111"
*VENDOR "OpenRCX"
*PROGRAM "Parallel Extraction"
*VERSION "1.0"
*DESIGN_FLOW "NAME_SCOPE LOCAL" "PIN_CAP NONE"
*DIVIDER /
*DELIMITER :
*BUS_DELIMITER []
*T_UNIT 1 NS
*C_UNIT 1 PF
*R_UNIT 1 OHM
*L_UNIT 1 HENRY

*NAME_MAP
*3 clk
*4 ena
*5 rst_n
*6 ui_in[0]
*7 ui_in[1]
*8 ui_in[2]
*9 ui_in[3]
*10 ui_in[4]
*11 ui_in[5]
*12 ui_in[6]
*13 ui_in[7]
*14 uio_in[0]
*15 uio_in[1]
*16 uio_in[2]
*17 uio_in[3]
*18 uio_in[4]
*19 uio_in[5]
*20 uio_in[6]
*21 uio_in[7]
*22 net22
*23 net23
*24 net24
*25 net25
*26 net26
*27 net27
*28 net28
*29 net29
*30 net10
*31 net11
*32 net12
*33 net13
*34 net14
*35 net15
*36 net16
*37 net17
*38 uo_out[0]
*39 uo_out[1]
*40 uo_out[2]
*41 uo_out[3]
*42 net18
*43 net19
*44 net20
*45 net21
*46 _000_
*47 _001_
*48 _002_
*49 _003_
*50 _004_
*51 _005_
*52 _006_
*53 _007_
*54 _008_
*55 _009_
*56 _010_
*57 _011_
*58 _012_
*59 _013_
*60 _014_
*61 _015_
*62 _016_
*63 _017_
*64 _018_
*65 _019_
*66 _020_
*67 _021_
*68 _022_
*69 _023_
*70 _024_
*71 _025_
*72 _026_
*73 _027_
*74 _028_
*75 _029_
*76 _030_
*77 _031_
*78 _032_
*79 _033_
*80 _034_
*81 _035_
*82 _036_
*83 _037_
*84 _038_
*85 _039_
*86 _040_
*87 _041_
*88 _042_
*89 _043_
*90 _044_
*91 _045_
*92 _046_
*93 _047_
*94 _048_
*95 _049_
*96 _050_
*97 _051_
*98 _052_
*99 _053_
*100 _054_
*101 _055_
*102 _056_
*103 _057_
*104 _058_
*105 _059_
*106 _060_
*107 _061_
*108 _062_
*109 _063_
*110 _064_
*111 _065_
*112 _066_
*113 _067_
*114 _068_
*115 _069_
*116 _070_
*117 _071_
*118 _072_
*119 _073_
*120 _074_
*121 _075_
*122 _076_
*123 _077_
*124 _078_
*125 _079_
*126 _080_
*127 _081_
*128 _082_
*129 _083_
*130 block1\.buf_in1\[1\]
*131 block1\.buf_in1\[2\]
*132 block1\.buf_in1\[3\]
*133 block1\.buf_in2\[0\]
*134 block1\.buf_in2\[2\]
*135 block1\.buf_in2\[3\]
*136 block1\.buf_in3\[0\]
*137 block1\.buf_in3\[1\]
*138 block1\.buf_in3\[3\]
*139 block1\.buf_in4\[0\]
*140 block1\.buf_in4\[1\]
*141 block1\.buf_in4\[2\]
*142 block1\.in1\[1\]
*143 block1\.in1\[2\]
*144 block1\.in1\[3\]
*145 block1\.in2\[0\]
*146 block1\.in2\[2\]
*147 block1\.in2\[3\]
*148 block1\.in3\[0\]
*149 block1\.in3\[1\]
*150 block1\.in3\[3\]
*151 block1\.in4\[0\]
*152 block1\.in4\[1\]
*153 block1\.in4\[2\]
*154 block1\.node1\.lfsr1\.feedback
*155 block1\.node1\.lfsr1\.lfsr\[0\]
*156 block1\.node1\.lfsr1\.lfsr\[10\]
*157 block1\.node1\.lfsr1\.lfsr\[11\]
*158 block1\.node1\.lfsr1\.lfsr\[12\]
*159 block1\.node1\.lfsr1\.lfsr\[13\]
*160 block1\.node1\.lfsr1\.lfsr\[14\]
*161 block1\.node1\.lfsr1\.lfsr\[1\]
*162 block1\.node1\.lfsr1\.lfsr\[2\]
*163 block1\.node1\.lfsr1\.lfsr\[3\]
*164 block1\.node1\.lfsr1\.lfsr\[4\]
*165 block1\.node1\.lfsr1\.lfsr\[5\]
*166 block1\.node1\.lfsr1\.lfsr\[6\]
*167 block1\.node1\.lfsr1\.lfsr\[7\]
*168 block1\.node1\.lfsr1\.lfsr\[8\]
*169 block1\.node1\.lfsr1\.lfsr\[9\]
*170 clknet_0_clk
*171 clknet_2_0__leaf_clk
*172 clknet_2_1__leaf_clk
*173 clknet_2_2__leaf_clk
*174 clknet_2_3__leaf_clk
*175 net1
*176 net2
*177 net3
*178 net30
*179 net31
*180 net32
*181 net33
*182 net34
*183 net35
*184 net36
*185 net37
*186 net38
*187 net39
*188 net4
*189 net40
*190 net41
*191 net42
*192 net43
*193 net44
*194 net45
*195 net46
*196 net47
*197 net48
*198 net49
*199 net5
*200 net50
*201 net51
*202 net52
*203 net53
*204 net54
*205 net55
*206 net56
*207 net57
*208 net58
*209 net59
*210 net6
*211 net60
*212 net61
*213 net62
*214 net63
*215 net64
*216 net65
*217 net7
*218 net8
*219 net9
*220 FILLER_0_0_109
*221 FILLER_0_0_113
*222 FILLER_0_0_125
*223 FILLER_0_0_137
*224 FILLER_0_0_141
*225 FILLER_0_0_15
*226 FILLER_0_0_153
*227 FILLER_0_0_165
*228 FILLER_0_0_169
*229 FILLER_0_0_181
*230 FILLER_0_0_193
*231 FILLER_0_0_197
*232 FILLER_0_0_209
*233 FILLER_0_0_221
*234 FILLER_0_0_225
*235 FILLER_0_0_237
*236 FILLER_0_0_249
*237 FILLER_0_0_253
*238 FILLER_0_0_265
*239 FILLER_0_0_27
*240 FILLER_0_0_277
*241 FILLER_0_0_281
*242 FILLER_0_0_29
*243 FILLER_0_0_293
*244 FILLER_0_0_3
*245 FILLER_0_0_305
*246 FILLER_0_0_309
*247 FILLER_0_0_321
*248 FILLER_0_0_333
*249 FILLER_0_0_337
*250 FILLER_0_0_349
*251 FILLER_0_0_41
*252 FILLER_0_0_53
*253 FILLER_0_0_57
*254 FILLER_0_0_69
*255 FILLER_0_0_81
*256 FILLER_0_0_85
*257 FILLER_0_0_97
*258 FILLER_0_10_109
*259 FILLER_0_10_121
*260 FILLER_0_10_133
*261 FILLER_0_10_139
*262 FILLER_0_10_141
*263 FILLER_0_10_15
*264 FILLER_0_10_153
*265 FILLER_0_10_165
*266 FILLER_0_10_177
*267 FILLER_0_10_189
*268 FILLER_0_10_195
*269 FILLER_0_10_197
*270 FILLER_0_10_209
*271 FILLER_0_10_221
*272 FILLER_0_10_233
*273 FILLER_0_10_245
*274 FILLER_0_10_251
*275 FILLER_0_10_253
*276 FILLER_0_10_265
*277 FILLER_0_10_27
*278 FILLER_0_10_277
*279 FILLER_0_10_289
*280 FILLER_0_10_29
*281 FILLER_0_10_3
*282 FILLER_0_10_301
*283 FILLER_0_10_307
*284 FILLER_0_10_309
*285 FILLER_0_10_321
*286 FILLER_0_10_333
*287 FILLER_0_10_345
*288 FILLER_0_10_41
*289 FILLER_0_10_53
*290 FILLER_0_10_65
*291 FILLER_0_10_77
*292 FILLER_0_10_83
*293 FILLER_0_10_85
*294 FILLER_0_10_97
*295 FILLER_0_11_105
*296 FILLER_0_11_111
*297 FILLER_0_11_113
*298 FILLER_0_11_125
*299 FILLER_0_11_137
*300 FILLER_0_11_149
*301 FILLER_0_11_15
*302 FILLER_0_11_161
*303 FILLER_0_11_167
*304 FILLER_0_11_169
*305 FILLER_0_11_181
*306 FILLER_0_11_193
*307 FILLER_0_11_205
*308 FILLER_0_11_217
*309 FILLER_0_11_223
*310 FILLER_0_11_225
*311 FILLER_0_11_237
*312 FILLER_0_11_249
*313 FILLER_0_11_261
*314 FILLER_0_11_27
*315 FILLER_0_11_273
*316 FILLER_0_11_279
*317 FILLER_0_11_281
*318 FILLER_0_11_293
*319 FILLER_0_11_3
*320 FILLER_0_11_305
*321 FILLER_0_11_317
*322 FILLER_0_11_329
*323 FILLER_0_11_335
*324 FILLER_0_11_337
*325 FILLER_0_11_349
*326 FILLER_0_11_39
*327 FILLER_0_11_51
*328 FILLER_0_11_55
*329 FILLER_0_11_57
*330 FILLER_0_11_69
*331 FILLER_0_11_81
*332 FILLER_0_11_93
*333 FILLER_0_12_109
*334 FILLER_0_12_121
*335 FILLER_0_12_133
*336 FILLER_0_12_139
*337 FILLER_0_12_141
*338 FILLER_0_12_15
*339 FILLER_0_12_153
*340 FILLER_0_12_165
*341 FILLER_0_12_177
*342 FILLER_0_12_189
*343 FILLER_0_12_195
*344 FILLER_0_12_197
*345 FILLER_0_12_209
*346 FILLER_0_12_221
*347 FILLER_0_12_233
*348 FILLER_0_12_245
*349 FILLER_0_12_251
*350 FILLER_0_12_253
*351 FILLER_0_12_265
*352 FILLER_0_12_27
*353 FILLER_0_12_277
*354 FILLER_0_12_289
*355 FILLER_0_12_29
*356 FILLER_0_12_3
*357 FILLER_0_12_301
*358 FILLER_0_12_307
*359 FILLER_0_12_309
*360 FILLER_0_12_321
*361 FILLER_0_12_333
*362 FILLER_0_12_345
*363 FILLER_0_12_41
*364 FILLER_0_12_53
*365 FILLER_0_12_65
*366 FILLER_0_12_77
*367 FILLER_0_12_83
*368 FILLER_0_12_85
*369 FILLER_0_12_97
*370 FILLER_0_13_105
*371 FILLER_0_13_111
*372 FILLER_0_13_113
*373 FILLER_0_13_125
*374 FILLER_0_13_137
*375 FILLER_0_13_149
*376 FILLER_0_13_15
*377 FILLER_0_13_161
*378 FILLER_0_13_167
*379 FILLER_0_13_169
*380 FILLER_0_13_181
*381 FILLER_0_13_193
*382 FILLER_0_13_205
*383 FILLER_0_13_217
*384 FILLER_0_13_223
*385 FILLER_0_13_225
*386 FILLER_0_13_237
*387 FILLER_0_13_249
*388 FILLER_0_13_261
*389 FILLER_0_13_27
*390 FILLER_0_13_273
*391 FILLER_0_13_279
*392 FILLER_0_13_281
*393 FILLER_0_13_293
*394 FILLER_0_13_3
*395 FILLER_0_13_305
*396 FILLER_0_13_317
*397 FILLER_0_13_329
*398 FILLER_0_13_335
*399 FILLER_0_13_337
*400 FILLER_0_13_349
*401 FILLER_0_13_39
*402 FILLER_0_13_51
*403 FILLER_0_13_55
*404 FILLER_0_13_57
*405 FILLER_0_13_69
*406 FILLER_0_13_81
*407 FILLER_0_13_93
*408 FILLER_0_14_109
*409 FILLER_0_14_121
*410 FILLER_0_14_133
*411 FILLER_0_14_139
*412 FILLER_0_14_141
*413 FILLER_0_14_15
*414 FILLER_0_14_153
*415 FILLER_0_14_165
*416 FILLER_0_14_177
*417 FILLER_0_14_189
*418 FILLER_0_14_195
*419 FILLER_0_14_197
*420 FILLER_0_14_209
*421 FILLER_0_14_221
*422 FILLER_0_14_233
*423 FILLER_0_14_245
*424 FILLER_0_14_251
*425 FILLER_0_14_253
*426 FILLER_0_14_265
*427 FILLER_0_14_27
*428 FILLER_0_14_277
*429 FILLER_0_14_289
*430 FILLER_0_14_29
*431 FILLER_0_14_3
*432 FILLER_0_14_301
*433 FILLER_0_14_307
*434 FILLER_0_14_309
*435 FILLER_0_14_321
*436 FILLER_0_14_333
*437 FILLER_0_14_345
*438 FILLER_0_14_41
*439 FILLER_0_14_53
*440 FILLER_0_14_65
*441 FILLER_0_14_77
*442 FILLER_0_14_83
*443 FILLER_0_14_85
*444 FILLER_0_14_97
*445 FILLER_0_15_105
*446 FILLER_0_15_111
*447 FILLER_0_15_113
*448 FILLER_0_15_125
*449 FILLER_0_15_137
*450 FILLER_0_15_149
*451 FILLER_0_15_15
*452 FILLER_0_15_161
*453 FILLER_0_15_167
*454 FILLER_0_15_169
*455 FILLER_0_15_181
*456 FILLER_0_15_193
*457 FILLER_0_15_205
*458 FILLER_0_15_217
*459 FILLER_0_15_223
*460 FILLER_0_15_225
*461 FILLER_0_15_237
*462 FILLER_0_15_249
*463 FILLER_0_15_261
*464 FILLER_0_15_27
*465 FILLER_0_15_273
*466 FILLER_0_15_279
*467 FILLER_0_15_281
*468 FILLER_0_15_293
*469 FILLER_0_15_3
*470 FILLER_0_15_305
*471 FILLER_0_15_317
*472 FILLER_0_15_329
*473 FILLER_0_15_335
*474 FILLER_0_15_337
*475 FILLER_0_15_349
*476 FILLER_0_15_39
*477 FILLER_0_15_51
*478 FILLER_0_15_55
*479 FILLER_0_15_57
*480 FILLER_0_15_69
*481 FILLER_0_15_81
*482 FILLER_0_15_93
*483 FILLER_0_16_109
*484 FILLER_0_16_121
*485 FILLER_0_16_133
*486 FILLER_0_16_139
*487 FILLER_0_16_141
*488 FILLER_0_16_15
*489 FILLER_0_16_153
*490 FILLER_0_16_165
*491 FILLER_0_16_177
*492 FILLER_0_16_189
*493 FILLER_0_16_195
*494 FILLER_0_16_197
*495 FILLER_0_16_209
*496 FILLER_0_16_221
*497 FILLER_0_16_233
*498 FILLER_0_16_245
*499 FILLER_0_16_251
*500 FILLER_0_16_253
*501 FILLER_0_16_265
*502 FILLER_0_16_27
*503 FILLER_0_16_277
*504 FILLER_0_16_289
*505 FILLER_0_16_29
*506 FILLER_0_16_3
*507 FILLER_0_16_301
*508 FILLER_0_16_307
*509 FILLER_0_16_309
*510 FILLER_0_16_321
*511 FILLER_0_16_333
*512 FILLER_0_16_345
*513 FILLER_0_16_41
*514 FILLER_0_16_53
*515 FILLER_0_16_65
*516 FILLER_0_16_77
*517 FILLER_0_16_83
*518 FILLER_0_16_85
*519 FILLER_0_16_97
*520 FILLER_0_17_105
*521 FILLER_0_17_111
*522 FILLER_0_17_113
*523 FILLER_0_17_125
*524 FILLER_0_17_137
*525 FILLER_0_17_149
*526 FILLER_0_17_15
*527 FILLER_0_17_161
*528 FILLER_0_17_167
*529 FILLER_0_17_169
*530 FILLER_0_17_181
*531 FILLER_0_17_193
*532 FILLER_0_17_205
*533 FILLER_0_17_217
*534 FILLER_0_17_223
*535 FILLER_0_17_225
*536 FILLER_0_17_237
*537 FILLER_0_17_249
*538 FILLER_0_17_261
*539 FILLER_0_17_27
*540 FILLER_0_17_273
*541 FILLER_0_17_279
*542 FILLER_0_17_281
*543 FILLER_0_17_293
*544 FILLER_0_17_3
*545 FILLER_0_17_305
*546 FILLER_0_17_317
*547 FILLER_0_17_329
*548 FILLER_0_17_335
*549 FILLER_0_17_337
*550 FILLER_0_17_349
*551 FILLER_0_17_39
*552 FILLER_0_17_51
*553 FILLER_0_17_55
*554 FILLER_0_17_57
*555 FILLER_0_17_69
*556 FILLER_0_17_81
*557 FILLER_0_17_93
*558 FILLER_0_18_109
*559 FILLER_0_18_121
*560 FILLER_0_18_133
*561 FILLER_0_18_139
*562 FILLER_0_18_141
*563 FILLER_0_18_15
*564 FILLER_0_18_153
*565 FILLER_0_18_165
*566 FILLER_0_18_177
*567 FILLER_0_18_189
*568 FILLER_0_18_195
*569 FILLER_0_18_197
*570 FILLER_0_18_209
*571 FILLER_0_18_221
*572 FILLER_0_18_233
*573 FILLER_0_18_245
*574 FILLER_0_18_251
*575 FILLER_0_18_253
*576 FILLER_0_18_265
*577 FILLER_0_18_27
*578 FILLER_0_18_277
*579 FILLER_0_18_289
*580 FILLER_0_18_29
*581 FILLER_0_18_3
*582 FILLER_0_18_301
*583 FILLER_0_18_307
*584 FILLER_0_18_309
*585 FILLER_0_18_321
*586 FILLER_0_18_333
*587 FILLER_0_18_345
*588 FILLER_0_18_41
*589 FILLER_0_18_53
*590 FILLER_0_18_65
*591 FILLER_0_18_77
*592 FILLER_0_18_83
*593 FILLER_0_18_85
*594 FILLER_0_18_97
*595 FILLER_0_19_105
*596 FILLER_0_19_111
*597 FILLER_0_19_113
*598 FILLER_0_19_125
*599 FILLER_0_19_137
*600 FILLER_0_19_149
*601 FILLER_0_19_15
*602 FILLER_0_19_161
*603 FILLER_0_19_167
*604 FILLER_0_19_169
*605 FILLER_0_19_181
*606 FILLER_0_19_193
*607 FILLER_0_19_205
*608 FILLER_0_19_217
*609 FILLER_0_19_223
*610 FILLER_0_19_225
*611 FILLER_0_19_237
*612 FILLER_0_19_249
*613 FILLER_0_19_261
*614 FILLER_0_19_27
*615 FILLER_0_19_273
*616 FILLER_0_19_279
*617 FILLER_0_19_281
*618 FILLER_0_19_293
*619 FILLER_0_19_3
*620 FILLER_0_19_305
*621 FILLER_0_19_317
*622 FILLER_0_19_329
*623 FILLER_0_19_335
*624 FILLER_0_19_337
*625 FILLER_0_19_349
*626 FILLER_0_19_39
*627 FILLER_0_19_51
*628 FILLER_0_19_55
*629 FILLER_0_19_57
*630 FILLER_0_19_69
*631 FILLER_0_19_81
*632 FILLER_0_19_93
*633 FILLER_0_1_105
*634 FILLER_0_1_111
*635 FILLER_0_1_113
*636 FILLER_0_1_125
*637 FILLER_0_1_137
*638 FILLER_0_1_149
*639 FILLER_0_1_15
*640 FILLER_0_1_161
*641 FILLER_0_1_167
*642 FILLER_0_1_169
*643 FILLER_0_1_181
*644 FILLER_0_1_193
*645 FILLER_0_1_205
*646 FILLER_0_1_217
*647 FILLER_0_1_223
*648 FILLER_0_1_225
*649 FILLER_0_1_237
*650 FILLER_0_1_249
*651 FILLER_0_1_261
*652 FILLER_0_1_27
*653 FILLER_0_1_273
*654 FILLER_0_1_279
*655 FILLER_0_1_281
*656 FILLER_0_1_293
*657 FILLER_0_1_3
*658 FILLER_0_1_305
*659 FILLER_0_1_317
*660 FILLER_0_1_329
*661 FILLER_0_1_335
*662 FILLER_0_1_337
*663 FILLER_0_1_349
*664 FILLER_0_1_39
*665 FILLER_0_1_51
*666 FILLER_0_1_55
*667 FILLER_0_1_57
*668 FILLER_0_1_69
*669 FILLER_0_1_81
*670 FILLER_0_1_93
*671 FILLER_0_20_109
*672 FILLER_0_20_121
*673 FILLER_0_20_133
*674 FILLER_0_20_139
*675 FILLER_0_20_141
*676 FILLER_0_20_15
*677 FILLER_0_20_153
*678 FILLER_0_20_165
*679 FILLER_0_20_177
*680 FILLER_0_20_189
*681 FILLER_0_20_195
*682 FILLER_0_20_197
*683 FILLER_0_20_209
*684 FILLER_0_20_221
*685 FILLER_0_20_233
*686 FILLER_0_20_245
*687 FILLER_0_20_251
*688 FILLER_0_20_253
*689 FILLER_0_20_265
*690 FILLER_0_20_27
*691 FILLER_0_20_277
*692 FILLER_0_20_289
*693 FILLER_0_20_29
*694 FILLER_0_20_3
*695 FILLER_0_20_301
*696 FILLER_0_20_307
*697 FILLER_0_20_309
*698 FILLER_0_20_321
*699 FILLER_0_20_333
*700 FILLER_0_20_345
*701 FILLER_0_20_41
*702 FILLER_0_20_53
*703 FILLER_0_20_65
*704 FILLER_0_20_77
*705 FILLER_0_20_83
*706 FILLER_0_20_85
*707 FILLER_0_20_97
*708 FILLER_0_21_105
*709 FILLER_0_21_111
*710 FILLER_0_21_113
*711 FILLER_0_21_125
*712 FILLER_0_21_137
*713 FILLER_0_21_149
*714 FILLER_0_21_15
*715 FILLER_0_21_161
*716 FILLER_0_21_167
*717 FILLER_0_21_169
*718 FILLER_0_21_181
*719 FILLER_0_21_193
*720 FILLER_0_21_205
*721 FILLER_0_21_217
*722 FILLER_0_21_223
*723 FILLER_0_21_225
*724 FILLER_0_21_237
*725 FILLER_0_21_249
*726 FILLER_0_21_261
*727 FILLER_0_21_27
*728 FILLER_0_21_273
*729 FILLER_0_21_279
*730 FILLER_0_21_281
*731 FILLER_0_21_293
*732 FILLER_0_21_3
*733 FILLER_0_21_305
*734 FILLER_0_21_317
*735 FILLER_0_21_329
*736 FILLER_0_21_335
*737 FILLER_0_21_337
*738 FILLER_0_21_349
*739 FILLER_0_21_39
*740 FILLER_0_21_51
*741 FILLER_0_21_55
*742 FILLER_0_21_57
*743 FILLER_0_21_69
*744 FILLER_0_21_81
*745 FILLER_0_21_93
*746 FILLER_0_22_109
*747 FILLER_0_22_121
*748 FILLER_0_22_133
*749 FILLER_0_22_139
*750 FILLER_0_22_141
*751 FILLER_0_22_15
*752 FILLER_0_22_153
*753 FILLER_0_22_165
*754 FILLER_0_22_177
*755 FILLER_0_22_189
*756 FILLER_0_22_195
*757 FILLER_0_22_197
*758 FILLER_0_22_209
*759 FILLER_0_22_221
*760 FILLER_0_22_233
*761 FILLER_0_22_245
*762 FILLER_0_22_251
*763 FILLER_0_22_253
*764 FILLER_0_22_265
*765 FILLER_0_22_27
*766 FILLER_0_22_277
*767 FILLER_0_22_289
*768 FILLER_0_22_29
*769 FILLER_0_22_3
*770 FILLER_0_22_301
*771 FILLER_0_22_307
*772 FILLER_0_22_309
*773 FILLER_0_22_321
*774 FILLER_0_22_333
*775 FILLER_0_22_345
*776 FILLER_0_22_41
*777 FILLER_0_22_53
*778 FILLER_0_22_65
*779 FILLER_0_22_77
*780 FILLER_0_22_83
*781 FILLER_0_22_85
*782 FILLER_0_22_97
*783 FILLER_0_23_105
*784 FILLER_0_23_111
*785 FILLER_0_23_113
*786 FILLER_0_23_125
*787 FILLER_0_23_137
*788 FILLER_0_23_149
*789 FILLER_0_23_15
*790 FILLER_0_23_161
*791 FILLER_0_23_167
*792 FILLER_0_23_169
*793 FILLER_0_23_181
*794 FILLER_0_23_193
*795 FILLER_0_23_205
*796 FILLER_0_23_217
*797 FILLER_0_23_223
*798 FILLER_0_23_225
*799 FILLER_0_23_237
*800 FILLER_0_23_249
*801 FILLER_0_23_261
*802 FILLER_0_23_27
*803 FILLER_0_23_273
*804 FILLER_0_23_279
*805 FILLER_0_23_281
*806 FILLER_0_23_293
*807 FILLER_0_23_3
*808 FILLER_0_23_305
*809 FILLER_0_23_317
*810 FILLER_0_23_329
*811 FILLER_0_23_335
*812 FILLER_0_23_337
*813 FILLER_0_23_349
*814 FILLER_0_23_39
*815 FILLER_0_23_51
*816 FILLER_0_23_55
*817 FILLER_0_23_57
*818 FILLER_0_23_69
*819 FILLER_0_23_81
*820 FILLER_0_23_93
*821 FILLER_0_24_109
*822 FILLER_0_24_121
*823 FILLER_0_24_133
*824 FILLER_0_24_139
*825 FILLER_0_24_141
*826 FILLER_0_24_15
*827 FILLER_0_24_153
*828 FILLER_0_24_165
*829 FILLER_0_24_177
*830 FILLER_0_24_189
*831 FILLER_0_24_195
*832 FILLER_0_24_197
*833 FILLER_0_24_209
*834 FILLER_0_24_221
*835 FILLER_0_24_233
*836 FILLER_0_24_245
*837 FILLER_0_24_251
*838 FILLER_0_24_253
*839 FILLER_0_24_265
*840 FILLER_0_24_27
*841 FILLER_0_24_277
*842 FILLER_0_24_289
*843 FILLER_0_24_29
*844 FILLER_0_24_3
*845 FILLER_0_24_301
*846 FILLER_0_24_307
*847 FILLER_0_24_309
*848 FILLER_0_24_321
*849 FILLER_0_24_333
*850 FILLER_0_24_345
*851 FILLER_0_24_41
*852 FILLER_0_24_53
*853 FILLER_0_24_65
*854 FILLER_0_24_77
*855 FILLER_0_24_83
*856 FILLER_0_24_85
*857 FILLER_0_24_97
*858 FILLER_0_25_105
*859 FILLER_0_25_111
*860 FILLER_0_25_113
*861 FILLER_0_25_125
*862 FILLER_0_25_137
*863 FILLER_0_25_149
*864 FILLER_0_25_15
*865 FILLER_0_25_161
*866 FILLER_0_25_167
*867 FILLER_0_25_169
*868 FILLER_0_25_181
*869 FILLER_0_25_193
*870 FILLER_0_25_205
*871 FILLER_0_25_217
*872 FILLER_0_25_223
*873 FILLER_0_25_225
*874 FILLER_0_25_237
*875 FILLER_0_25_249
*876 FILLER_0_25_261
*877 FILLER_0_25_27
*878 FILLER_0_25_273
*879 FILLER_0_25_279
*880 FILLER_0_25_281
*881 FILLER_0_25_293
*882 FILLER_0_25_3
*883 FILLER_0_25_305
*884 FILLER_0_25_317
*885 FILLER_0_25_329
*886 FILLER_0_25_335
*887 FILLER_0_25_337
*888 FILLER_0_25_349
*889 FILLER_0_25_39
*890 FILLER_0_25_51
*891 FILLER_0_25_55
*892 FILLER_0_25_57
*893 FILLER_0_25_69
*894 FILLER_0_25_81
*895 FILLER_0_25_93
*896 FILLER_0_26_109
*897 FILLER_0_26_121
*898 FILLER_0_26_133
*899 FILLER_0_26_139
*900 FILLER_0_26_141
*901 FILLER_0_26_15
*902 FILLER_0_26_153
*903 FILLER_0_26_165
*904 FILLER_0_26_177
*905 FILLER_0_26_189
*906 FILLER_0_26_195
*907 FILLER_0_26_197
*908 FILLER_0_26_209
*909 FILLER_0_26_221
*910 FILLER_0_26_233
*911 FILLER_0_26_245
*912 FILLER_0_26_251
*913 FILLER_0_26_253
*914 FILLER_0_26_265
*915 FILLER_0_26_27
*916 FILLER_0_26_277
*917 FILLER_0_26_289
*918 FILLER_0_26_29
*919 FILLER_0_26_3
*920 FILLER_0_26_301
*921 FILLER_0_26_307
*922 FILLER_0_26_309
*923 FILLER_0_26_321
*924 FILLER_0_26_333
*925 FILLER_0_26_345
*926 FILLER_0_26_41
*927 FILLER_0_26_53
*928 FILLER_0_26_65
*929 FILLER_0_26_77
*930 FILLER_0_26_83
*931 FILLER_0_26_85
*932 FILLER_0_26_97
*933 FILLER_0_27_105
*934 FILLER_0_27_111
*935 FILLER_0_27_113
*936 FILLER_0_27_125
*937 FILLER_0_27_137
*938 FILLER_0_27_15
*939 FILLER_0_27_157
*940 FILLER_0_27_167
*941 FILLER_0_27_169
*942 FILLER_0_27_181
*943 FILLER_0_27_193
*944 FILLER_0_27_205
*945 FILLER_0_27_217
*946 FILLER_0_27_223
*947 FILLER_0_27_225
*948 FILLER_0_27_237
*949 FILLER_0_27_249
*950 FILLER_0_27_261
*951 FILLER_0_27_27
*952 FILLER_0_27_273
*953 FILLER_0_27_279
*954 FILLER_0_27_281
*955 FILLER_0_27_293
*956 FILLER_0_27_3
*957 FILLER_0_27_305
*958 FILLER_0_27_317
*959 FILLER_0_27_329
*960 FILLER_0_27_335
*961 FILLER_0_27_337
*962 FILLER_0_27_349
*963 FILLER_0_27_39
*964 FILLER_0_27_51
*965 FILLER_0_27_55
*966 FILLER_0_27_57
*967 FILLER_0_27_69
*968 FILLER_0_27_81
*969 FILLER_0_27_93
*970 FILLER_0_28_109
*971 FILLER_0_28_121
*972 FILLER_0_28_141
*973 FILLER_0_28_145
*974 FILLER_0_28_15
*975 FILLER_0_28_154
*976 FILLER_0_28_197
*977 FILLER_0_28_209
*978 FILLER_0_28_221
*979 FILLER_0_28_233
*980 FILLER_0_28_245
*981 FILLER_0_28_251
*982 FILLER_0_28_253
*983 FILLER_0_28_265
*984 FILLER_0_28_27
*985 FILLER_0_28_277
*986 FILLER_0_28_289
*987 FILLER_0_28_29
*988 FILLER_0_28_3
*989 FILLER_0_28_301
*990 FILLER_0_28_307
*991 FILLER_0_28_309
*992 FILLER_0_28_321
*993 FILLER_0_28_333
*994 FILLER_0_28_345
*995 FILLER_0_28_41
*996 FILLER_0_28_53
*997 FILLER_0_28_65
*998 FILLER_0_28_77
*999 FILLER_0_28_83
*1000 FILLER_0_28_85
*1001 FILLER_0_28_97
*1002 FILLER_0_29_105
*1003 FILLER_0_29_111
*1004 FILLER_0_29_113
*1005 FILLER_0_29_149
*1006 FILLER_0_29_15
*1007 FILLER_0_29_166
*1008 FILLER_0_29_169
*1009 FILLER_0_29_207
*1010 FILLER_0_29_219
*1011 FILLER_0_29_223
*1012 FILLER_0_29_225
*1013 FILLER_0_29_233
*1014 FILLER_0_29_239
*1015 FILLER_0_29_251
*1016 FILLER_0_29_27
*1017 FILLER_0_29_284
*1018 FILLER_0_29_3
*1019 FILLER_0_29_301
*1020 FILLER_0_29_313
*1021 FILLER_0_29_325
*1022 FILLER_0_29_333
*1023 FILLER_0_29_337
*1024 FILLER_0_29_349
*1025 FILLER_0_29_39
*1026 FILLER_0_29_51
*1027 FILLER_0_29_55
*1028 FILLER_0_29_57
*1029 FILLER_0_29_69
*1030 FILLER_0_29_81
*1031 FILLER_0_29_93
*1032 FILLER_0_2_109
*1033 FILLER_0_2_121
*1034 FILLER_0_2_133
*1035 FILLER_0_2_139
*1036 FILLER_0_2_141
*1037 FILLER_0_2_15
*1038 FILLER_0_2_153
*1039 FILLER_0_2_165
*1040 FILLER_0_2_177
*1041 FILLER_0_2_189
*1042 FILLER_0_2_195
*1043 FILLER_0_2_197
*1044 FILLER_0_2_209
*1045 FILLER_0_2_221
*1046 FILLER_0_2_233
*1047 FILLER_0_2_245
*1048 FILLER_0_2_251
*1049 FILLER_0_2_253
*1050 FILLER_0_2_265
*1051 FILLER_0_2_27
*1052 FILLER_0_2_277
*1053 FILLER_0_2_289
*1054 FILLER_0_2_29
*1055 FILLER_0_2_3
*1056 FILLER_0_2_301
*1057 FILLER_0_2_307
*1058 FILLER_0_2_309
*1059 FILLER_0_2_321
*1060 FILLER_0_2_333
*1061 FILLER_0_2_345
*1062 FILLER_0_2_41
*1063 FILLER_0_2_53
*1064 FILLER_0_2_65
*1065 FILLER_0_2_77
*1066 FILLER_0_2_83
*1067 FILLER_0_2_85
*1068 FILLER_0_2_97
*1069 FILLER_0_30_109
*1070 FILLER_0_30_121
*1071 FILLER_0_30_149
*1072 FILLER_0_30_15
*1073 FILLER_0_30_174
*1074 FILLER_0_30_197
*1075 FILLER_0_30_221
*1076 FILLER_0_30_229
*1077 FILLER_0_30_236
*1078 FILLER_0_30_246
*1079 FILLER_0_30_27
*1080 FILLER_0_30_29
*1081 FILLER_0_30_3
*1082 FILLER_0_30_305
*1083 FILLER_0_30_309
*1084 FILLER_0_30_321
*1085 FILLER_0_30_333
*1086 FILLER_0_30_345
*1087 FILLER_0_30_41
*1088 FILLER_0_30_53
*1089 FILLER_0_30_65
*1090 FILLER_0_30_77
*1091 FILLER_0_30_83
*1092 FILLER_0_30_85
*1093 FILLER_0_30_97
*1094 FILLER_0_31_105
*1095 FILLER_0_31_111
*1096 FILLER_0_31_113
*1097 FILLER_0_31_125
*1098 FILLER_0_31_129
*1099 FILLER_0_31_145
*1100 FILLER_0_31_15
*1101 FILLER_0_31_157
*1102 FILLER_0_31_165
*1103 FILLER_0_31_177
*1104 FILLER_0_31_189
*1105 FILLER_0_31_222
*1106 FILLER_0_31_27
*1107 FILLER_0_31_279
*1108 FILLER_0_31_284
*1109 FILLER_0_31_3
*1110 FILLER_0_31_301
*1111 FILLER_0_31_313
*1112 FILLER_0_31_325
*1113 FILLER_0_31_333
*1114 FILLER_0_31_337
*1115 FILLER_0_31_349
*1116 FILLER_0_31_39
*1117 FILLER_0_31_51
*1118 FILLER_0_31_55
*1119 FILLER_0_31_57
*1120 FILLER_0_31_69
*1121 FILLER_0_31_81
*1122 FILLER_0_31_93
*1123 FILLER_0_32_109
*1124 FILLER_0_32_121
*1125 FILLER_0_32_15
*1126 FILLER_0_32_164
*1127 FILLER_0_32_168
*1128 FILLER_0_32_177
*1129 FILLER_0_32_186
*1130 FILLER_0_32_193
*1131 FILLER_0_32_213
*1132 FILLER_0_32_222
*1133 FILLER_0_32_230
*1134 FILLER_0_32_239
*1135 FILLER_0_32_258
*1136 FILLER_0_32_27
*1137 FILLER_0_32_287
*1138 FILLER_0_32_29
*1139 FILLER_0_32_3
*1140 FILLER_0_32_304
*1141 FILLER_0_32_309
*1142 FILLER_0_32_321
*1143 FILLER_0_32_326
*1144 FILLER_0_32_338
*1145 FILLER_0_32_350
*1146 FILLER_0_32_41
*1147 FILLER_0_32_53
*1148 FILLER_0_32_65
*1149 FILLER_0_32_77
*1150 FILLER_0_32_83
*1151 FILLER_0_32_85
*1152 FILLER_0_32_97
*1153 FILLER_0_33_105
*1154 FILLER_0_33_111
*1155 FILLER_0_33_113
*1156 FILLER_0_33_121
*1157 FILLER_0_33_15
*1158 FILLER_0_33_163
*1159 FILLER_0_33_167
*1160 FILLER_0_33_185
*1161 FILLER_0_33_203
*1162 FILLER_0_33_214
*1163 FILLER_0_33_222
*1164 FILLER_0_33_225
*1165 FILLER_0_33_27
*1166 FILLER_0_33_276
*1167 FILLER_0_33_3
*1168 FILLER_0_33_300
*1169 FILLER_0_33_318
*1170 FILLER_0_33_337
*1171 FILLER_0_33_349
*1172 FILLER_0_33_39
*1173 FILLER_0_33_51
*1174 FILLER_0_33_55
*1175 FILLER_0_33_57
*1176 FILLER_0_33_69
*1177 FILLER_0_33_81
*1178 FILLER_0_33_93
*1179 FILLER_0_34_109
*1180 FILLER_0_34_121
*1181 FILLER_0_34_129
*1182 FILLER_0_34_15
*1183 FILLER_0_34_165
*1184 FILLER_0_34_194
*1185 FILLER_0_34_213
*1186 FILLER_0_34_231
*1187 FILLER_0_34_235
*1188 FILLER_0_34_245
*1189 FILLER_0_34_251
*1190 FILLER_0_34_253
*1191 FILLER_0_34_27
*1192 FILLER_0_34_288
*1193 FILLER_0_34_29
*1194 FILLER_0_34_292
*1195 FILLER_0_34_3
*1196 FILLER_0_34_305
*1197 FILLER_0_34_309
*1198 FILLER_0_34_339
*1199 FILLER_0_34_41
*1200 FILLER_0_34_53
*1201 FILLER_0_34_65
*1202 FILLER_0_34_77
*1203 FILLER_0_34_83
*1204 FILLER_0_34_85
*1205 FILLER_0_34_97
*1206 FILLER_0_35_105
*1207 FILLER_0_35_111
*1208 FILLER_0_35_113
*1209 FILLER_0_35_125
*1210 FILLER_0_35_149
*1211 FILLER_0_35_15
*1212 FILLER_0_35_161
*1213 FILLER_0_35_167
*1214 FILLER_0_35_169
*1215 FILLER_0_35_175
*1216 FILLER_0_35_194
*1217 FILLER_0_35_232
*1218 FILLER_0_35_241
*1219 FILLER_0_35_251
*1220 FILLER_0_35_258
*1221 FILLER_0_35_269
*1222 FILLER_0_35_27
*1223 FILLER_0_35_277
*1224 FILLER_0_35_281
*1225 FILLER_0_35_3
*1226 FILLER_0_35_301
*1227 FILLER_0_35_312
*1228 FILLER_0_35_318
*1229 FILLER_0_35_344
*1230 FILLER_0_35_350
*1231 FILLER_0_35_39
*1232 FILLER_0_35_51
*1233 FILLER_0_35_55
*1234 FILLER_0_35_57
*1235 FILLER_0_35_69
*1236 FILLER_0_35_81
*1237 FILLER_0_35_93
*1238 FILLER_0_36_109
*1239 FILLER_0_36_121
*1240 FILLER_0_36_133
*1241 FILLER_0_36_139
*1242 FILLER_0_36_141
*1243 FILLER_0_36_15
*1244 FILLER_0_36_153
*1245 FILLER_0_36_165
*1246 FILLER_0_36_173
*1247 FILLER_0_36_193
*1248 FILLER_0_36_197
*1249 FILLER_0_36_206
*1250 FILLER_0_36_262
*1251 FILLER_0_36_267
*1252 FILLER_0_36_27
*1253 FILLER_0_36_277
*1254 FILLER_0_36_285
*1255 FILLER_0_36_29
*1256 FILLER_0_36_3
*1257 FILLER_0_36_309
*1258 FILLER_0_36_327
*1259 FILLER_0_36_344
*1260 FILLER_0_36_350
*1261 FILLER_0_36_41
*1262 FILLER_0_36_53
*1263 FILLER_0_36_65
*1264 FILLER_0_36_77
*1265 FILLER_0_36_83
*1266 FILLER_0_36_85
*1267 FILLER_0_36_97
*1268 FILLER_0_37_105
*1269 FILLER_0_37_111
*1270 FILLER_0_37_113
*1271 FILLER_0_37_125
*1272 FILLER_0_37_137
*1273 FILLER_0_37_149
*1274 FILLER_0_37_15
*1275 FILLER_0_37_161
*1276 FILLER_0_37_167
*1277 FILLER_0_37_169
*1278 FILLER_0_37_176
*1279 FILLER_0_37_222
*1280 FILLER_0_37_230
*1281 FILLER_0_37_27
*1282 FILLER_0_37_277
*1283 FILLER_0_37_281
*1284 FILLER_0_37_3
*1285 FILLER_0_37_301
*1286 FILLER_0_37_335
*1287 FILLER_0_37_348
*1288 FILLER_0_37_39
*1289 FILLER_0_37_51
*1290 FILLER_0_37_55
*1291 FILLER_0_37_57
*1292 FILLER_0_37_69
*1293 FILLER_0_37_81
*1294 FILLER_0_37_93
*1295 FILLER_0_38_104
*1296 FILLER_0_38_110
*1297 FILLER_0_38_116
*1298 FILLER_0_38_122
*1299 FILLER_0_38_128
*1300 FILLER_0_38_134
*1301 FILLER_0_38_141
*1302 FILLER_0_38_146
*1303 FILLER_0_38_15
*1304 FILLER_0_38_152
*1305 FILLER_0_38_158
*1306 FILLER_0_38_164
*1307 FILLER_0_38_194
*1308 FILLER_0_38_217
*1309 FILLER_0_38_223
*1310 FILLER_0_38_225
*1311 FILLER_0_38_237
*1312 FILLER_0_38_27
*1313 FILLER_0_38_278
*1314 FILLER_0_38_29
*1315 FILLER_0_38_3
*1316 FILLER_0_38_307
*1317 FILLER_0_38_316
*1318 FILLER_0_38_337
*1319 FILLER_0_38_349
*1320 FILLER_0_38_41
*1321 FILLER_0_38_53
*1322 FILLER_0_38_57
*1323 FILLER_0_38_68
*1324 FILLER_0_38_74
*1325 FILLER_0_38_80
*1326 FILLER_0_38_88
*1327 FILLER_0_38_92
*1328 FILLER_0_38_98
*1329 FILLER_0_3_105
*1330 FILLER_0_3_111
*1331 FILLER_0_3_113
*1332 FILLER_0_3_125
*1333 FILLER_0_3_137
*1334 FILLER_0_3_149
*1335 FILLER_0_3_15
*1336 FILLER_0_3_161
*1337 FILLER_0_3_167
*1338 FILLER_0_3_169
*1339 FILLER_0_3_181
*1340 FILLER_0_3_193
*1341 FILLER_0_3_205
*1342 FILLER_0_3_217
*1343 FILLER_0_3_223
*1344 FILLER_0_3_225
*1345 FILLER_0_3_237
*1346 FILLER_0_3_249
*1347 FILLER_0_3_261
*1348 FILLER_0_3_27
*1349 FILLER_0_3_273
*1350 FILLER_0_3_279
*1351 FILLER_0_3_281
*1352 FILLER_0_3_293
*1353 FILLER_0_3_3
*1354 FILLER_0_3_305
*1355 FILLER_0_3_317
*1356 FILLER_0_3_329
*1357 FILLER_0_3_335
*1358 FILLER_0_3_337
*1359 FILLER_0_3_349
*1360 FILLER_0_3_39
*1361 FILLER_0_3_51
*1362 FILLER_0_3_55
*1363 FILLER_0_3_57
*1364 FILLER_0_3_69
*1365 FILLER_0_3_81
*1366 FILLER_0_3_93
*1367 FILLER_0_4_109
*1368 FILLER_0_4_121
*1369 FILLER_0_4_133
*1370 FILLER_0_4_139
*1371 FILLER_0_4_141
*1372 FILLER_0_4_15
*1373 FILLER_0_4_153
*1374 FILLER_0_4_165
*1375 FILLER_0_4_177
*1376 FILLER_0_4_189
*1377 FILLER_0_4_195
*1378 FILLER_0_4_197
*1379 FILLER_0_4_209
*1380 FILLER_0_4_221
*1381 FILLER_0_4_233
*1382 FILLER_0_4_245
*1383 FILLER_0_4_251
*1384 FILLER_0_4_253
*1385 FILLER_0_4_265
*1386 FILLER_0_4_27
*1387 FILLER_0_4_277
*1388 FILLER_0_4_289
*1389 FILLER_0_4_29
*1390 FILLER_0_4_3
*1391 FILLER_0_4_301
*1392 FILLER_0_4_307
*1393 FILLER_0_4_309
*1394 FILLER_0_4_321
*1395 FILLER_0_4_333
*1396 FILLER_0_4_345
*1397 FILLER_0_4_41
*1398 FILLER_0_4_53
*1399 FILLER_0_4_65
*1400 FILLER_0_4_77
*1401 FILLER_0_4_83
*1402 FILLER_0_4_85
*1403 FILLER_0_4_97
*1404 FILLER_0_5_105
*1405 FILLER_0_5_111
*1406 FILLER_0_5_113
*1407 FILLER_0_5_125
*1408 FILLER_0_5_137
*1409 FILLER_0_5_149
*1410 FILLER_0_5_15
*1411 FILLER_0_5_161
*1412 FILLER_0_5_167
*1413 FILLER_0_5_169
*1414 FILLER_0_5_181
*1415 FILLER_0_5_193
*1416 FILLER_0_5_205
*1417 FILLER_0_5_217
*1418 FILLER_0_5_223
*1419 FILLER_0_5_225
*1420 FILLER_0_5_237
*1421 FILLER_0_5_249
*1422 FILLER_0_5_261
*1423 FILLER_0_5_27
*1424 FILLER_0_5_273
*1425 FILLER_0_5_279
*1426 FILLER_0_5_281
*1427 FILLER_0_5_293
*1428 FILLER_0_5_3
*1429 FILLER_0_5_305
*1430 FILLER_0_5_317
*1431 FILLER_0_5_329
*1432 FILLER_0_5_335
*1433 FILLER_0_5_337
*1434 FILLER_0_5_349
*1435 FILLER_0_5_39
*1436 FILLER_0_5_51
*1437 FILLER_0_5_55
*1438 FILLER_0_5_57
*1439 FILLER_0_5_69
*1440 FILLER_0_5_81
*1441 FILLER_0_5_93
*1442 FILLER_0_6_109
*1443 FILLER_0_6_121
*1444 FILLER_0_6_133
*1445 FILLER_0_6_139
*1446 FILLER_0_6_141
*1447 FILLER_0_6_15
*1448 FILLER_0_6_153
*1449 FILLER_0_6_165
*1450 FILLER_0_6_177
*1451 FILLER_0_6_189
*1452 FILLER_0_6_195
*1453 FILLER_0_6_197
*1454 FILLER_0_6_209
*1455 FILLER_0_6_221
*1456 FILLER_0_6_233
*1457 FILLER_0_6_245
*1458 FILLER_0_6_251
*1459 FILLER_0_6_253
*1460 FILLER_0_6_265
*1461 FILLER_0_6_27
*1462 FILLER_0_6_277
*1463 FILLER_0_6_289
*1464 FILLER_0_6_29
*1465 FILLER_0_6_3
*1466 FILLER_0_6_301
*1467 FILLER_0_6_307
*1468 FILLER_0_6_309
*1469 FILLER_0_6_321
*1470 FILLER_0_6_333
*1471 FILLER_0_6_345
*1472 FILLER_0_6_41
*1473 FILLER_0_6_53
*1474 FILLER_0_6_65
*1475 FILLER_0_6_77
*1476 FILLER_0_6_83
*1477 FILLER_0_6_85
*1478 FILLER_0_6_97
*1479 FILLER_0_7_105
*1480 FILLER_0_7_111
*1481 FILLER_0_7_113
*1482 FILLER_0_7_125
*1483 FILLER_0_7_137
*1484 FILLER_0_7_149
*1485 FILLER_0_7_15
*1486 FILLER_0_7_161
*1487 FILLER_0_7_167
*1488 FILLER_0_7_169
*1489 FILLER_0_7_181
*1490 FILLER_0_7_193
*1491 FILLER_0_7_205
*1492 FILLER_0_7_217