*SPEF "ieee 1481-1999"
*DESIGN "tt_um_7segx4_clock_abhishek_top"
*DATE "11:11:11 Fri 11 11, 1111"
*VENDOR "OpenRCX"
*PROGRAM "Parallel Extraction"
*VERSION "1.0"
*DESIGN_FLOW "NAME_SCOPE LOCAL" "PIN_CAP NONE"
*DIVIDER /
*DELIMITER :
*BUS_DELIMITER []
*T_UNIT 1 NS
*C_UNIT 1 PF
*R_UNIT 1 OHM
*L_UNIT 1 HENRY

*NAME_MAP
*3 clk
*4 ena
*5 rst_n
*6 ui_in[0]
*7 ui_in[1]
*8 ui_in[2]
*9 ui_in[3]
*10 ui_in[4]
*11 ui_in[5]
*12 ui_in[6]
*13 ui_in[7]
*14 uio_in[0]
*15 uio_in[1]
*16 uio_in[2]
*17 uio_in[3]
*18 uio_in[4]
*19 uio_in[5]
*20 uio_in[6]
*21 uio_in[7]
*22 net9
*23 net10
*24 net11
*25 net12
*26 net13
*27 net14
*28 net15
*29 net16
*30 net17
*31 net18
*32 net19
*33 net20
*34 net21
*35 net22
*36 net23
*37 net24
*38 net25
*39 net3
*40 net4
*41 uo_out[3]
*42 net5
*43 net6
*44 net7
*45 net8
*46 _000_
*47 _001_
*48 _002_
*49 _003_
*50 _004_
*51 _005_
*52 _006_
*53 _007_
*54 _008_
*55 _009_
*56 _010_
*57 _011_
*58 _012_
*59 _013_
*60 _014_
*61 _015_
*62 _016_
*63 _017_
*64 _018_
*65 _019_
*66 _020_
*67 _021_
*68 _022_
*69 _023_
*70 _024_
*71 _025_
*72 _026_
*73 _027_
*74 _028_
*75 _029_
*76 _030_
*77 _031_
*78 _032_
*79 _033_
*80 _034_
*81 _035_
*82 _036_
*83 _037_
*84 _038_
*85 _039_
*86 _040_
*87 _041_
*88 _042_
*89 _043_
*90 _044_
*91 _045_
*92 _046_
*93 _047_
*94 _048_
*95 _049_
*96 _050_
*97 _051_
*98 _052_
*99 _053_
*100 _054_
*101 _055_
*102 _056_
*103 _057_
*104 _058_
*105 _059_
*106 _060_
*107 _061_
*108 _062_
*109 _063_
*110 _064_
*111 _065_
*112 _066_
*113 _067_
*114 _068_
*115 _069_
*116 _070_
*117 _071_
*118 _072_
*119 _073_
*120 _074_
*121 _075_
*122 _076_
*123 _077_
*124 _078_
*125 _079_
*126 _080_
*127 _081_
*128 _082_
*129 _083_
*130 _084_
*131 _085_
*132 _086_
*133 _087_
*134 _088_
*135 _089_
*136 _090_
*137 _091_
*138 _092_
*139 _093_
*140 _094_
*141 _095_
*142 _096_
*143 _097_
*144 _098_
*145 _099_
*146 _100_
*147 _101_
*148 _102_
*149 _103_
*150 _104_
*151 _105_
*152 clkHalfHz_out
*153 clknet_0_clk
*154 clknet_1_0__leaf_clk
*155 clknet_1_1__leaf_clk
*156 net1
*157 net2
*158 net26
*159 net27
*160 net28
*161 net29
*162 net30
*163 net31
*164 net32
*165 net33
*166 net34
*167 second_counter\[0\]
*168 second_counter\[10\]
*169 second_counter\[11\]
*170 second_counter\[12\]
*171 second_counter\[13\]
*172 second_counter\[14\]
*173 second_counter\[15\]
*174 second_counter\[16\]
*175 second_counter\[17\]
*176 second_counter\[18\]
*177 second_counter\[19\]
*178 second_counter\[1\]
*179 second_counter\[20\]
*180 second_counter\[21\]
*181 second_counter\[22\]
*182 second_counter\[23\]
*183 second_counter\[24\]
*184 second_counter\[2\]
*185 second_counter\[3\]
*186 second_counter\[4\]
*187 second_counter\[5\]
*188 second_counter\[6\]
*189 second_counter\[7\]
*190 second_counter\[8\]
*191 second_counter\[9\]
*192 FILLER_0_0_109
*193 FILLER_0_0_113
*194 FILLER_0_0_125
*195 FILLER_0_0_137
*196 FILLER_0_0_141
*197 FILLER_0_0_15
*198 FILLER_0_0_153
*199 FILLER_0_0_165
*200 FILLER_0_0_169
*201 FILLER_0_0_181
*202 FILLER_0_0_193
*203 FILLER_0_0_197
*204 FILLER_0_0_209
*205 FILLER_0_0_221
*206 FILLER_0_0_225
*207 FILLER_0_0_237
*208 FILLER_0_0_249
*209 FILLER_0_0_253
*210 FILLER_0_0_265
*211 FILLER_0_0_27
*212 FILLER_0_0_277
*213 FILLER_0_0_281
*214 FILLER_0_0_29
*215 FILLER_0_0_293
*216 FILLER_0_0_3
*217 FILLER_0_0_305
*218 FILLER_0_0_309
*219 FILLER_0_0_321
*220 FILLER_0_0_333
*221 FILLER_0_0_337
*222 FILLER_0_0_349
*223 FILLER_0_0_41
*224 FILLER_0_0_53
*225 FILLER_0_0_57
*226 FILLER_0_0_69
*227 FILLER_0_0_81
*228 FILLER_0_0_85
*229 FILLER_0_0_97
*230 FILLER_0_10_109
*231 FILLER_0_10_121
*232 FILLER_0_10_133
*233 FILLER_0_10_139
*234 FILLER_0_10_141
*235 FILLER_0_10_15
*236 FILLER_0_10_153
*237 FILLER_0_10_165
*238 FILLER_0_10_177
*239 FILLER_0_10_189
*240 FILLER_0_10_195
*241 FILLER_0_10_197
*242 FILLER_0_10_209
*243 FILLER_0_10_221
*244 FILLER_0_10_233
*245 FILLER_0_10_245
*246 FILLER_0_10_251
*247 FILLER_0_10_253
*248 FILLER_0_10_265
*249 FILLER_0_10_27
*250 FILLER_0_10_277
*251 FILLER_0_10_289
*252 FILLER_0_10_29
*253 FILLER_0_10_3
*254 FILLER_0_10_301
*255 FILLER_0_10_307
*256 FILLER_0_10_309
*257 FILLER_0_10_321
*258 FILLER_0_10_333
*259 FILLER_0_10_345
*260 FILLER_0_10_41
*261 FILLER_0_10_53
*262 FILLER_0_10_65
*263 FILLER_0_10_77
*264 FILLER_0_10_83
*265 FILLER_0_10_85
*266 FILLER_0_10_97
*267 FILLER_0_11_105
*268 FILLER_0_11_111
*269 FILLER_0_11_113
*270 FILLER_0_11_125
*271 FILLER_0_11_137
*272 FILLER_0_11_149
*273 FILLER_0_11_15
*274 FILLER_0_11_161
*275 FILLER_0_11_167
*276 FILLER_0_11_169
*277 FILLER_0_11_181
*278 FILLER_0_11_193
*279 FILLER_0_11_205
*280 FILLER_0_11_217
*281 FILLER_0_11_223
*282 FILLER_0_11_225
*283 FILLER_0_11_237
*284 FILLER_0_11_249
*285 FILLER_0_11_261
*286 FILLER_0_11_27
*287 FILLER_0_11_273
*288 FILLER_0_11_279
*289 FILLER_0_11_281
*290 FILLER_0_11_293
*291 FILLER_0_11_3
*292 FILLER_0_11_305
*293 FILLER_0_11_317
*294 FILLER_0_11_329
*295 FILLER_0_11_335
*296 FILLER_0_11_337
*297 FILLER_0_11_349
*298 FILLER_0_11_39
*299 FILLER_0_11_51
*300 FILLER_0_11_55
*301 FILLER_0_11_57
*302 FILLER_0_11_69
*303 FILLER_0_11_81
*304 FILLER_0_11_93
*305 FILLER_0_12_109
*306 FILLER_0_12_121
*307 FILLER_0_12_133
*308 FILLER_0_12_139
*309 FILLER_0_12_141
*310 FILLER_0_12_15
*311 FILLER_0_12_153
*312 FILLER_0_12_165
*313 FILLER_0_12_177
*314 FILLER_0_12_189
*315 FILLER_0_12_195
*316 FILLER_0_12_197
*317 FILLER_0_12_209
*318 FILLER_0_12_221
*319 FILLER_0_12_233
*320 FILLER_0_12_245
*321 FILLER_0_12_251
*322 FILLER_0_12_253
*323 FILLER_0_12_265
*324 FILLER_0_12_27
*325 FILLER_0_12_277
*326 FILLER_0_12_289
*327 FILLER_0_12_29
*328 FILLER_0_12_3
*329 FILLER_0_12_301
*330 FILLER_0_12_307
*331 FILLER_0_12_309
*332 FILLER_0_12_321
*333 FILLER_0_12_333
*334 FILLER_0_12_345
*335 FILLER_0_12_41
*336 FILLER_0_12_53
*337 FILLER_0_12_65
*338 FILLER_0_12_77
*339 FILLER_0_12_83
*340 FILLER_0_12_85
*341 FILLER_0_12_97
*342 FILLER_0_13_105
*343 FILLER_0_13_111
*344 FILLER_0_13_113
*345 FILLER_0_13_125
*346 FILLER_0_13_137
*347 FILLER_0_13_149
*348 FILLER_0_13_15
*349 FILLER_0_13_161
*350 FILLER_0_13_167
*351 FILLER_0_13_169
*352 FILLER_0_13_181
*353 FILLER_0_13_193
*354 FILLER_0_13_205
*355 FILLER_0_13_217
*356 FILLER_0_13_223
*357 FILLER_0_13_225
*358 FILLER_0_13_237
*359 FILLER_0_13_249
*360 FILLER_0_13_261
*361 FILLER_0_13_27
*362 FILLER_0_13_273
*363 FILLER_0_13_279
*364 FILLER_0_13_281
*365 FILLER_0_13_293
*366 FILLER_0_13_3
*367 FILLER_0_13_305
*368 FILLER_0_13_317
*369 FILLER_0_13_329
*370 FILLER_0_13_335
*371 FILLER_0_13_337
*372 FILLER_0_13_349
*373 FILLER_0_13_39
*374 FILLER_0_13_51
*375 FILLER_0_13_55
*376 FILLER_0_13_57
*377 FILLER_0_13_69
*378 FILLER_0_13_81
*379 FILLER_0_13_93
*380 FILLER_0_14_109
*381 FILLER_0_14_121
*382 FILLER_0_14_133
*383 FILLER_0_14_139
*384 FILLER_0_14_141
*385 FILLER_0_14_15
*386 FILLER_0_14_153
*387 FILLER_0_14_165
*388 FILLER_0_14_177
*389 FILLER_0_14_189
*390 FILLER_0_14_195
*391 FILLER_0_14_197
*392 FILLER_0_14_209
*393 FILLER_0_14_221
*394 FILLER_0_14_233
*395 FILLER_0_14_245
*396 FILLER_0_14_251
*397 FILLER_0_14_253
*398 FILLER_0_14_265
*399 FILLER_0_14_27
*400 FILLER_0_14_277
*401 FILLER_0_14_289
*402 FILLER_0_14_29
*403 FILLER_0_14_3
*404 FILLER_0_14_301
*405 FILLER_0_14_307
*406 FILLER_0_14_309
*407 FILLER_0_14_321
*408 FILLER_0_14_333
*409 FILLER_0_14_345
*410 FILLER_0_14_41
*411 FILLER_0_14_53
*412 FILLER_0_14_65
*413 FILLER_0_14_77
*414 FILLER_0_14_83
*415 FILLER_0_14_85
*416 FILLER_0_14_97
*417 FILLER_0_15_105
*418 FILLER_0_15_111
*419 FILLER_0_15_113
*420 FILLER_0_15_125
*421 FILLER_0_15_137
*422 FILLER_0_15_149
*423 FILLER_0_15_15
*424 FILLER_0_15_161
*425 FILLER_0_15_167
*426 FILLER_0_15_169
*427 FILLER_0_15_181
*428 FILLER_0_15_193
*429 FILLER_0_15_205
*430 FILLER_0_15_217
*431 FILLER_0_15_223
*432 FILLER_0_15_225
*433 FILLER_0_15_237
*434 FILLER_0_15_249
*435 FILLER_0_15_261
*436 FILLER_0_15_27
*437 FILLER_0_15_273
*438 FILLER_0_15_279
*439 FILLER_0_15_281
*440 FILLER_0_15_293
*441 FILLER_0_15_3
*442 FILLER_0_15_305
*443 FILLER_0_15_317
*444 FILLER_0_15_329
*445 FILLER_0_15_335
*446 FILLER_0_15_337
*447 FILLER_0_15_349
*448 FILLER_0_15_39
*449 FILLER_0_15_51
*450 FILLER_0_15_55
*451 FILLER_0_15_57
*452 FILLER_0_15_69
*453 FILLER_0_15_81
*454 FILLER_0_15_93
*455 FILLER_0_16_109
*456 FILLER_0_16_121
*457 FILLER_0_16_133
*458 FILLER_0_16_139
*459 FILLER_0_16_141
*460 FILLER_0_16_15
*461 FILLER_0_16_153
*462 FILLER_0_16_165
*463 FILLER_0_16_177
*464 FILLER_0_16_189
*465 FILLER_0_16_195
*466 FILLER_0_16_197
*467 FILLER_0_16_209
*468 FILLER_0_16_221
*469 FILLER_0_16_233
*470 FILLER_0_16_245
*471 FILLER_0_16_251
*472 FILLER_0_16_253
*473 FILLER_0_16_265
*474 FILLER_0_16_27
*475 FILLER_0_16_277
*476 FILLER_0_16_289
*477 FILLER_0_16_29
*478 FILLER_0_16_3
*479 FILLER_0_16_301
*480 FILLER_0_16_307
*481 FILLER_0_16_309
*482 FILLER_0_16_321
*483 FILLER_0_16_333
*484 FILLER_0_16_345
*485 FILLER_0_16_41
*486 FILLER_0_16_53
*487 FILLER_0_16_65
*488 FILLER_0_16_77
*489 FILLER_0_16_83
*490 FILLER_0_16_85
*491 FILLER_0_16_97
*492 FILLER_0_17_105
*493 FILLER_0_17_111
*494 FILLER_0_17_113
*495 FILLER_0_17_125
*496 FILLER_0_17_137
*497 FILLER_0_17_149
*498 FILLER_0_17_15
*499 FILLER_0_17_161
*500 FILLER_0_17_167
*501 FILLER_0_17_169
*502 FILLER_0_17_181
*503 FILLER_0_17_193
*504 FILLER_0_17_205
*505 FILLER_0_17_217
*506 FILLER_0_17_223
*507 FILLER_0_17_225
*508 FILLER_0_17_237
*509 FILLER_0_17_249
*510 FILLER_0_17_261
*511 FILLER_0_17_27
*512 FILLER_0_17_273
*513 FILLER_0_17_279
*514 FILLER_0_17_281
*515 FILLER_0_17_293
*516 FILLER_0_17_3
*517 FILLER_0_17_305
*518 FILLER_0_17_317
*519 FILLER_0_17_329
*520 FILLER_0_17_335
*521 FILLER_0_17_337
*522 FILLER_0_17_349
*523 FILLER_0_17_39
*524 FILLER_0_17_51
*525 FILLER_0_17_55
*526 FILLER_0_17_57
*527 FILLER_0_17_69
*528 FILLER_0_17_81
*529 FILLER_0_17_93
*530 FILLER_0_18_109
*531 FILLER_0_18_121
*532 FILLER_0_18_133
*533 FILLER_0_18_139
*534 FILLER_0_18_141
*535 FILLER_0_18_15
*536 FILLER_0_18_153
*537 FILLER_0_18_165
*538 FILLER_0_18_177
*539 FILLER_0_18_189
*540 FILLER_0_18_195
*541 FILLER_0_18_197
*542 FILLER_0_18_209
*543 FILLER_0_18_221
*544 FILLER_0_18_233
*545 FILLER_0_18_245
*546 FILLER_0_18_251
*547 FILLER_0_18_253
*548 FILLER_0_18_265
*549 FILLER_0_18_27
*550 FILLER_0_18_277
*551 FILLER_0_18_289
*552 FILLER_0_18_29
*553 FILLER_0_18_3
*554 FILLER_0_18_301
*555 FILLER_0_18_307
*556 FILLER_0_18_309
*557 FILLER_0_18_321
*558 FILLER_0_18_333
*559 FILLER_0_18_345
*560 FILLER_0_18_41
*561 FILLER_0_18_53
*562 FILLER_0_18_65
*563 FILLER_0_18_77
*564 FILLER_0_18_83
*565 FILLER_0_18_85
*566 FILLER_0_18_97
*567 FILLER_0_19_105
*568 FILLER_0_19_111
*569 FILLER_0_19_113
*570 FILLER_0_19_125
*571 FILLER_0_19_137
*572 FILLER_0_19_149
*573 FILLER_0_19_15
*574 FILLER_0_19_161
*575 FILLER_0_19_167
*576 FILLER_0_19_169
*577 FILLER_0_19_181
*578 FILLER_0_19_193
*579 FILLER_0_19_205
*580 FILLER_0_19_217
*581 FILLER_0_19_223
*582 FILLER_0_19_225
*583 FILLER_0_19_237
*584 FILLER_0_19_249
*585 FILLER_0_19_261
*586 FILLER_0_19_27
*587 FILLER_0_19_273
*588 FILLER_0_19_279
*589 FILLER_0_19_281
*590 FILLER_0_19_293
*591 FILLER_0_19_3
*592 FILLER_0_19_305
*593 FILLER_0_19_317
*594 FILLER_0_19_329
*595 FILLER_0_19_335
*596 FILLER_0_19_337
*597 FILLER_0_19_349
*598 FILLER_0_19_39
*599 FILLER_0_19_51
*600 FILLER_0_19_55
*601 FILLER_0_19_57
*602 FILLER_0_19_69
*603 FILLER_0_19_81
*604 FILLER_0_19_93
*605 FILLER_0_1_105
*606 FILLER_0_1_111
*607 FILLER_0_1_113
*608 FILLER_0_1_125
*609 FILLER_0_1_137
*610 FILLER_0_1_149
*611 FILLER_0_1_15
*612 FILLER_0_1_161
*613 FILLER_0_1_167
*614 FILLER_0_1_169
*615 FILLER_0_1_181
*616 FILLER_0_1_193
*617 FILLER_0_1_205
*618 FILLER_0_1_217
*619 FILLER_0_1_223
*620 FILLER_0_1_225
*621 FILLER_0_1_237
*622 FILLER_0_1_249
*623 FILLER_0_1_261
*624 FILLER_0_1_27
*625 FILLER_0_1_273
*626 FILLER_0_1_279
*627 FILLER_0_1_281
*628 FILLER_0_1_293
*629 FILLER_0_1_3
*630 FILLER_0_1_305
*631 FILLER_0_1_317
*632 FILLER_0_1_329
*633 FILLER_0_1_335
*634 FILLER_0_1_337
*635 FILLER_0_1_349
*636 FILLER_0_1_39
*637 FILLER_0_1_51
*638 FILLER_0_1_55
*639 FILLER_0_1_57
*640 FILLER_0_1_69
*641 FILLER_0_1_81
*642 FILLER_0_1_93
*643 FILLER_0_20_109
*644 FILLER_0_20_121
*645 FILLER_0_20_133
*646 FILLER_0_20_139
*647 FILLER_0_20_141
*648 FILLER_0_20_15
*649 FILLER_0_20_153
*650 FILLER_0_20_165
*651 FILLER_0_20_177
*652 FILLER_0_20_189
*653 FILLER_0_20_195
*654 FILLER_0_20_197
*655 FILLER_0_20_209
*656 FILLER_0_20_221
*657 FILLER_0_20_233
*658 FILLER_0_20_245
*659 FILLER_0_20_251
*660 FILLER_0_20_253
*661 FILLER_0_20_265
*662 FILLER_0_20_27
*663 FILLER_0_20_277
*664 FILLER_0_20_289
*665 FILLER_0_20_29
*666 FILLER_0_20_3
*667 FILLER_0_20_301
*668 FILLER_0_20_307
*669 FILLER_0_20_309
*670 FILLER_0_20_321
*671 FILLER_0_20_333
*672 FILLER_0_20_345
*673 FILLER_0_20_41
*674 FILLER_0_20_53
*675 FILLER_0_20_65
*676 FILLER_0_20_77
*677 FILLER_0_20_83
*678 FILLER_0_20_85
*679 FILLER_0_20_97
*680 FILLER_0_21_105
*681 FILLER_0_21_111
*682 FILLER_0_21_113
*683 FILLER_0_21_125
*684 FILLER_0_21_137
*685 FILLER_0_21_149
*686 FILLER_0_21_15
*687 FILLER_0_21_161
*688 FILLER_0_21_167
*689 FILLER_0_21_169
*690 FILLER_0_21_181
*691 FILLER_0_21_193
*692 FILLER_0_21_205
*693 FILLER_0_21_217
*694 FILLER_0_21_223
*695 FILLER_0_21_225
*696 FILLER_0_21_237
*697 FILLER_0_21_249
*698 FILLER_0_21_261
*699 FILLER_0_21_27
*700 FILLER_0_21_273
*701 FILLER_0_21_279
*702 FILLER_0_21_281
*703 FILLER_0_21_293
*704 FILLER_0_21_3
*705 FILLER_0_21_305
*706 FILLER_0_21_317
*707 FILLER_0_21_329
*708 FILLER_0_21_335
*709 FILLER_0_21_337
*710 FILLER_0_21_349
*711 FILLER_0_21_39
*712 FILLER_0_21_51
*713 FILLER_0_21_55
*714 FILLER_0_21_57
*715 FILLER_0_21_69
*716 FILLER_0_21_81
*717 FILLER_0_21_93
*718 FILLER_0_22_109
*719 FILLER_0_22_121
*720 FILLER_0_22_133
*721 FILLER_0_22_139
*722 FILLER_0_22_141
*723 FILLER_0_22_15
*724 FILLER_0_22_153
*725 FILLER_0_22_165
*726 FILLER_0_22_177
*727 FILLER_0_22_189
*728 FILLER_0_22_195
*729 FILLER_0_22_197
*730 FILLER_0_22_209
*731 FILLER_0_22_221
*732 FILLER_0_22_233
*733 FILLER_0_22_245
*734 FILLER_0_22_251
*735 FILLER_0_22_253
*736 FILLER_0_22_265
*737 FILLER_0_22_27
*738 FILLER_0_22_277
*739 FILLER_0_22_289
*740 FILLER_0_22_29
*741 FILLER_0_22_3
*742 FILLER_0_22_301
*743 FILLER_0_22_307
*744 FILLER_0_22_309
*745 FILLER_0_22_321
*746 FILLER_0_22_333
*747 FILLER_0_22_345
*748 FILLER_0_22_41
*749 FILLER_0_22_53
*750 FILLER_0_22_65
*751 FILLER_0_22_77
*752 FILLER_0_22_83
*753 FILLER_0_22_85
*754 FILLER_0_22_97
*755 FILLER_0_23_105
*756 FILLER_0_23_111
*757 FILLER_0_23_113
*758 FILLER_0_23_125
*759 FILLER_0_23_137
*760 FILLER_0_23_149
*761 FILLER_0_23_15
*762 FILLER_0_23_161
*763 FILLER_0_23_167
*764 FILLER_0_23_169
*765 FILLER_0_23_181
*766 FILLER_0_23_193
*767 FILLER_0_23_205
*768 FILLER_0_23_217
*769 FILLER_0_23_223
*770 FILLER_0_23_225
*771 FILLER_0_23_237
*772 FILLER_0_23_249
*773 FILLER_0_23_261
*774 FILLER_0_23_27
*775 FILLER_0_23_273
*776 FILLER_0_23_279
*777 FILLER_0_23_281
*778 FILLER_0_23_293
*779 FILLER_0_23_3
*780 FILLER_0_23_305
*781 FILLER_0_23_317
*782 FILLER_0_23_329
*783 FILLER_0_23_335
*784 FILLER_0_23_337
*785 FILLER_0_23_349
*786 FILLER_0_23_39
*787 FILLER_0_23_51
*788 FILLER_0_23_55
*789 FILLER_0_23_57
*790 FILLER_0_23_69
*791 FILLER_0_23_81
*792 FILLER_0_23_93
*793 FILLER_0_24_109
*794 FILLER_0_24_121
*795 FILLER_0_24_133
*796 FILLER_0_24_139
*797 FILLER_0_24_141
*798 FILLER_0_24_15
*799 FILLER_0_24_153
*800 FILLER_0_24_165
*801 FILLER_0_24_177
*802 FILLER_0_24_189
*803 FILLER_0_24_195
*804 FILLER_0_24_197
*805 FILLER_0_24_209
*806 FILLER_0_24_221
*807 FILLER_0_24_233
*808 FILLER_0_24_245
*809 FILLER_0_24_251
*810 FILLER_0_24_253
*811 FILLER_0_24_265
*812 FILLER_0_24_27
*813 FILLER_0_24_277
*814 FILLER_0_24_289
*815 FILLER_0_24_29
*816 FILLER_0_24_3
*817 FILLER_0_24_301
*818 FILLER_0_24_307
*819 FILLER_0_24_309
*820 FILLER_0_24_321
*821 FILLER_0_24_333
*822 FILLER_0_24_345
*823 FILLER_0_24_41
*824 FILLER_0_24_53
*825 FILLER_0_24_65
*826 FILLER_0_24_77
*827 FILLER_0_24_83
*828 FILLER_0_24_85
*829 FILLER_0_24_97
*830 FILLER_0_25_105
*831 FILLER_0_25_111
*832 FILLER_0_25_113
*833 FILLER_0_25_125
*834 FILLER_0_25_137
*835 FILLER_0_25_149
*836 FILLER_0_25_15
*837 FILLER_0_25_161
*838 FILLER_0_25_167
*839 FILLER_0_25_169
*840 FILLER_0_25_181
*841 FILLER_0_25_193
*842 FILLER_0_25_205
*843 FILLER_0_25_217
*844 FILLER_0_25_223
*845 FILLER_0_25_225
*846 FILLER_0_25_237
*847 FILLER_0_25_249
*848 FILLER_0_25_261
*849 FILLER_0_25_27
*850 FILLER_0_25_273
*851 FILLER_0_25_279
*852 FILLER_0_25_281
*853 FILLER_0_25_293
*854 FILLER_0_25_3
*855 FILLER_0_25_305
*856 FILLER_0_25_317
*857 FILLER_0_25_329
*858 FILLER_0_25_335
*859 FILLER_0_25_337
*860 FILLER_0_25_349
*861 FILLER_0_25_39
*862 FILLER_0_25_51
*863 FILLER_0_25_55
*864 FILLER_0_25_57
*865 FILLER_0_25_69
*866 FILLER_0_25_81
*867 FILLER_0_25_93
*868 FILLER_0_26_109
*869 FILLER_0_26_121
*870 FILLER_0_26_133
*871 FILLER_0_26_139
*872 FILLER_0_26_141
*873 FILLER_0_26_15
*874 FILLER_0_26_153
*875 FILLER_0_26_165
*876 FILLER_0_26_177
*877 FILLER_0_26_189
*878 FILLER_0_26_195
*879 FILLER_0_26_197
*880 FILLER_0_26_209
*881 FILLER_0_26_221
*882 FILLER_0_26_233
*883 FILLER_0_26_245
*884 FILLER_0_26_251
*885 FILLER_0_26_253
*886 FILLER_0_26_265
*887 FILLER_0_26_27
*888 FILLER_0_26_277
*889 FILLER_0_26_289
*890 FILLER_0_26_29
*891 FILLER_0_26_3
*892 FILLER_0_26_301
*893 FILLER_0_26_307
*894 FILLER_0_26_309
*895 FILLER_0_26_321
*896 FILLER_0_26_333
*897 FILLER_0_26_345
*898 FILLER_0_26_41
*899 FILLER_0_26_53
*900 FILLER_0_26_65
*901 FILLER_0_26_77
*902 FILLER_0_26_83
*903 FILLER_0_26_85
*904 FILLER_0_26_97
*905 FILLER_0_27_105
*906 FILLER_0_27_111
*907 FILLER_0_27_113
*908 FILLER_0_27_125
*909 FILLER_0_27_137
*910 FILLER_0_27_149
*911 FILLER_0_27_15
*912 FILLER_0_27_161
*913 FILLER_0_27_167
*914 FILLER_0_27_169
*915 FILLER_0_27_181
*916 FILLER_0_27_193
*917 FILLER_0_27_205
*918 FILLER_0_27_217
*919 FILLER_0_27_223
*920 FILLER_0_27_225
*921 FILLER_0_27_237
*922 FILLER_0_27_245
*923 FILLER_0_27_253
*924 FILLER_0_27_265
*925 FILLER_0_27_27
*926 FILLER_0_27_277
*927 FILLER_0_27_281
*928 FILLER_0_27_286
*929 FILLER_0_27_298
*930 FILLER_0_27_3
*931 FILLER_0_27_310
*932 FILLER_0_27_322
*933 FILLER_0_27_334
*934 FILLER_0_27_337
*935 FILLER_0_27_349
*936 FILLER_0_27_39
*937 FILLER_0_27_51
*938 FILLER_0_27_55
*939 FILLER_0_27_57
*940 FILLER_0_27_69
*941 FILLER_0_27_81
*942 FILLER_0_27_93
*943 FILLER_0_28_109
*944 FILLER_0_28_121
*945 FILLER_0_28_133
*946 FILLER_0_28_139
*947 FILLER_0_28_141
*948 FILLER_0_28_15
*949 FILLER_0_28_153
*950 FILLER_0_28_165
*951 FILLER_0_28_177
*952 FILLER_0_28_189
*953 FILLER_0_28_195
*954 FILLER_0_28_197
*955 FILLER_0_28_237
*956 FILLER_0_28_243
*957 FILLER_0_28_251
*958 FILLER_0_28_269
*959 FILLER_0_28_27
*960 FILLER_0_28_273
*961 FILLER_0_28_29
*962 FILLER_0_28_298
*963 FILLER_0_28_3
*964 FILLER_0_28_306
*965 FILLER_0_28_325
*966 FILLER_0_28_347
*967 FILLER_0_28_41
*968 FILLER_0_28_53
*969 FILLER_0_28_65
*970 FILLER_0_28_77
*971 FILLER_0_28_83
*972 FILLER_0_28_85
*973 FILLER_0_28_97
*974 FILLER_0_29_105
*975 FILLER_0_29_111
*976 FILLER_0_29_113
*977 FILLER_0_29_125
*978 FILLER_0_29_137
*979 FILLER_0_29_149
*980 FILLER_0_29_15
*981 FILLER_0_29_161
*982 FILLER_0_29_167
*983 FILLER_0_29_169
*984 FILLER_0_29_181
*985 FILLER_0_29_190
*986 FILLER_0_29_198
*987 FILLER_0_29_221
*988 FILLER_0_29_225
*989 FILLER_0_29_229
*990 FILLER_0_29_235
*991 FILLER_0_29_241
*992 FILLER_0_29_250
*993 FILLER_0_29_27
*994 FILLER_0_29_287
*995 FILLER_0_29_299
*996 FILLER_0_29_3
*997 FILLER_0_29_319
*998 FILLER_0_29_327
*999 FILLER_0_29_333
*1000 FILLER_0_29_337
*1001 FILLER_0_29_349
*1002 FILLER_0_29_39
*1003 FILLER_0_29_51
*1004 FILLER_0_29_55
*1005 FILLER_0_29_57
*1006 FILLER_0_29_69
*1007 FILLER_0_29_81
*1008 FILLER_0_29_93
*1009 FILLER_0_2_109
*1010 FILLER_0_2_121
*1011 FILLER_0_2_133
*1012 FILLER_0_2_139
*1013 FILLER_0_2_141
*1014 FILLER_0_2_15
*1015 FILLER_0_2_153
*1016 FILLER_0_2_165
*1017 FILLER_0_2_177
*1018 FILLER_0_2_189
*1019 FILLER_0_2_195
*1020 FILLER_0_2_197
*1021 FILLER_0_2_209
*1022 FILLER_0_2_221
*1023 FILLER_0_2_233
*1024 FILLER_0_2_245
*1025 FILLER_0_2_251
*1026 FILLER_0_2_253
*1027 FILLER_0_2_265
*1028 FILLER_0_2_27
*1029 FILLER_0_2_277
*1030 FILLER_0_2_289
*1031 FILLER_0_2_29
*1032 FILLER_0_2_3
*1033 FILLER_0_2_301
*1034 FILLER_0_2_307
*1035 FILLER_0_2_309
*1036 FILLER_0_2_321
*1037 FILLER_0_2_333
*1038 FILLER_0_2_345
*1039 FILLER_0_2_41
*1040 FILLER_0_2_53
*1041 FILLER_0_2_65
*1042 FILLER_0_2_77
*1043 FILLER_0_2_83
*1044 FILLER_0_2_85
*1045 FILLER_0_2_97
*1046 FILLER_0_30_109
*1047 FILLER_0_30_121
*1048 FILLER_0_30_133
*1049 FILLER_0_30_139
*1050 FILLER_0_30_141
*1051 FILLER_0_30_15
*1052 FILLER_0_30_153
*1053 FILLER_0_30_165
*1054 FILLER_0_30_177
*1055 FILLER_0_30_197
*1056 FILLER_0_30_209
*1057 FILLER_0_30_220
*1058 FILLER_0_30_233
*1059 FILLER_0_30_257
*1060 FILLER_0_30_261
*1061 FILLER_0_30_27
*1062 FILLER_0_30_283
*1063 FILLER_0_30_29
*1064 FILLER_0_30_3
*1065 FILLER_0_30_305
*1066 FILLER_0_30_314
*1067 FILLER_0_30_320
*1068 FILLER_0_30_333
*1069 FILLER_0_30_345
*1070 FILLER_0_30_41
*1071 FILLER_0_30_53
*1072 FILLER_0_30_65
*1073 FILLER_0_30_77
*1074 FILLER_0_30_83
*1075 FILLER_0_30_85
*1076 FILLER_0_30_97
*1077 FILLER_0_31_105
*1078 FILLER_0_31_111
*1079 FILLER_0_31_113
*1080 FILLER_0_31_125
*1081 FILLER_0_31_137
*1082 FILLER_0_31_149
*1083 FILLER_0_31_15
*1084 FILLER_0_31_161
*1085 FILLER_0_31_167
*1086 FILLER_0_31_169
*1087 FILLER_0_31_181
*1088 FILLER_0_31_185
*1089 FILLER_0_31_193
*1090 FILLER_0_31_207
*1091 FILLER_0_31_214
*1092 FILLER_0_31_222
*1093 FILLER_0_31_236
*1094 FILLER_0_31_254
*1095 FILLER_0_31_262
*1096 FILLER_0_31_27
*1097 FILLER_0_31_270
*1098 FILLER_0_31_278
*1099 FILLER_0_31_292
*1100 FILLER_0_31_3
*1101 FILLER_0_31_300
*1102 FILLER_0_31_307
*1103 FILLER_0_31_319
*1104 FILLER_0_31_323
*1105 FILLER_0_31_331
*1106 FILLER_0_31_335
*1107 FILLER_0_31_340
*1108 FILLER_0_31_348
*1109 FILLER_0_31_39
*1110 FILLER_0_31_51
*1111 FILLER_0_31_55
*1112 FILLER_0_31_57
*1113 FILLER_0_31_69
*1114 FILLER_0_31_81
*1115 FILLER_0_31_93
*1116 FILLER_0_32_109
*1117 FILLER_0_32_121
*1118 FILLER_0_32_133
*1119 FILLER_0_32_139
*1120 FILLER_0_32_141
*1121 FILLER_0_32_15
*1122 FILLER_0_32_153
*1123 FILLER_0_32_165
*1124 FILLER_0_32_173
*1125 FILLER_0_32_177
*1126 FILLER_0_32_185
*1127 FILLER_0_32_191
*1128 FILLER_0_32_195
*1129 FILLER_0_32_197
*1130 FILLER_0_32_205
*1131 FILLER_0_32_213
*1132 FILLER_0_32_231
*1133 FILLER_0_32_235
*1134 FILLER_0_32_253
*1135 FILLER_0_32_259
*1136 FILLER_0_32_27
*1137 FILLER_0_32_276
*1138 FILLER_0_32_29
*1139 FILLER_0_32_295
*1140 FILLER_0_32_3
*1141 FILLER_0_32_307
*1142 FILLER_0_32_309
*1143 FILLER_0_32_321
*1144 FILLER_0_32_331
*1145 FILLER_0_32_41
*1146 FILLER_0_32_53
*1147 FILLER_0_32_65
*1148 FILLER_0_32_77
*1149 FILLER_0_32_83
*1150 FILLER_0_32_85
*1151 FILLER_0_32_97
*1152 FILLER_0_33_105
*1153 FILLER_0_33_111
*1154 FILLER_0_33_113
*1155 FILLER_0_33_125
*1156 FILLER_0_33_137
*1157 FILLER_0_33_149
*1158 FILLER_0_33_15
*1159 FILLER_0_33_161
*1160 FILLER_0_33_167
*1161 FILLER_0_33_169
*1162 FILLER_0_33_193
*1163 FILLER_0_33_204
*1164 FILLER_0_33_220
*1165 FILLER_0_33_225
*1166 FILLER_0_33_233
*1167 FILLER_0_33_239
*1168 FILLER_0_33_249
*1169 FILLER_0_33_27
*1170 FILLER_0_33_276
*1171 FILLER_0_33_281
*1172 FILLER_0_33_3
*1173 FILLER_0_33_303
*1174 FILLER_0_33_309
*1175 FILLER_0_33_332
*1176 FILLER_0_33_340
*1177 FILLER_0_33_348
*1178 FILLER_0_33_39
*1179 FILLER_0_33_51
*1180 FILLER_0_33_55
*1181 FILLER_0_33_57
*1182 FILLER_0_33_69
*1183 FILLER_0_33_81
*1184 FILLER_0_33_93
*1185 FILLER_0_34_109
*1186 FILLER_0_34_121
*1187 FILLER_0_34_133
*1188 FILLER_0_34_139
*1189 FILLER_0_34_141
*1190 FILLER_0_34_15
*1191 FILLER_0_34_153
*1192 FILLER_0_34_165
*1193 FILLER_0_34_171
*1194 FILLER_0_34_175
*1195 FILLER_0_34_183
*1196 FILLER_0_34_188
*1197 FILLER_0_34_197
*1198 FILLER_0_34_203
*1199 FILLER_0_34_209
*1200 FILLER_0_34_223
*1201 FILLER_0_34_227
*1202 FILLER_0_34_235
*1203 FILLER_0_34_243
*1204 FILLER_0_34_253
*1205 FILLER_0_34_265
*1206 FILLER_0_34_27
*1207 FILLER_0_34_285
*1208 FILLER_0_34_29
*1209 FILLER_0_34_291
*1210 FILLER_0_34_3
*1211 FILLER_0_34_306
*1212 FILLER_0_34_309
*1213 FILLER_0_34_317
*1214 FILLER_0_34_334
*1215 FILLER_0_34_41
*1216 FILLER_0_34_53
*1217 FILLER_0_34_65
*1218 FILLER_0_34_77
*1219 FILLER_0_34_83
*1220 FILLER_0_34_85
*1221 FILLER_0_34_97
*1222 FILLER_0_35_105
*1223 FILLER_0_35_111
*1224 FILLER_0_35_113
*1225 FILLER_0_35_125
*1226 FILLER_0_35_137
*1227 FILLER_0_35_149
*1228 FILLER_0_35_15
*1229 FILLER_0_35_161
*1230 FILLER_0_35_167
*1231 FILLER_0_35_206
*1232 FILLER_0_35_216
*1233 FILLER_0_35_225
*1234 FILLER_0_35_238
*1235 FILLER_0_35_261
*1236 FILLER_0_35_27
*1237 FILLER_0_35_271
*1238 FILLER_0_35_279
*1239 FILLER_0_35_297
*1240 FILLER_0_35_3
*1241 FILLER_0_35_311
*1242 FILLER_0_35_315
*1243 FILLER_0_35_333
*1244 FILLER_0_35_337
*1245 FILLER_0_35_349
*1246 FILLER_0_35_39
*1247 FILLER_0_35_51
*1248 FILLER_0_35_55
*1249 FILLER_0_35_57
*1250 FILLER_0_35_69
*1251 FILLER_0_35_81
*1252 FILLER_0_35_93
*1253 FILLER_0_36_109
*1254 FILLER_0_36_121
*1255 FILLER_0_36_133
*1256 FILLER_0_36_139
*1257 FILLER_0_36_141
*1258 FILLER_0_36_15
*1259 FILLER_0_36_153
*1260 FILLER_0_36_165
*1261 FILLER_0_36_177
*1262 FILLER_0_36_189
*1263 FILLER_0_36_213
*1264 FILLER_0_36_221
*1265 FILLER_0_36_226
*1266 FILLER_0_36_232
*1267 FILLER_0_36_240
*1268 FILLER_0_36_251
*1269 FILLER_0_36_253
*1270 FILLER_0_36_261
*1271 FILLER_0_36_268
*1272 FILLER_0_36_27
*1273 FILLER_0_36_277
*1274 FILLER_0_36_281
*1275 FILLER_0_36_289
*1276 FILLER_0_36_29
*1277 FILLER_0_36_295
*1278 FILLER_0_36_3
*1279 FILLER_0_36_302
*1280 FILLER_0_36_306
*1281 FILLER_0_36_309
*1282 FILLER_0_36_321
*1283 FILLER_0_36_329
*1284 FILLER_0_36_350
*1285 FILLER_0_36_41
*1286 FILLER_0_36_53
*1287 FILLER_0_36_65
*1288 FILLER_0_36_77
*1289 FILLER_0_36_83
*1290 FILLER_0_36_85
*1291 FILLER_0_36_97
*1292 FILLER_0_37_105
*1293 FILLER_0_37_111
*1294 FILLER_0_37_113
*1295 FILLER_0_37_125
*1296 FILLER_0_37_137
*1297 FILLER_0_37_149
*1298 FILLER_0_37_15
*1299 FILLER_0_37_161
*1300 FILLER_0_37_167
*1301 FILLER_0_37_169
*1302 FILLER_0_37_181
*1303 FILLER_0_37_193
*1304 FILLER_0_37_201
*1305 FILLER_0_37_210
*1306 FILLER_0_37_222
*1307 FILLER_0_37_249
*1308 FILLER_0_37_260
*1309 FILLER_0_37_27
*1310 FILLER_0_37_273
*1311 FILLER_0_37_279
*1312 FILLER_0_37_281
*1313 FILLER_0_37_3
*1314 FILLER_0_37_334
*1315 FILLER_0_37_337
*1316 FILLER_0_37_349
*1317 FILLER_0_37_39
*1318 FILLER_0_37_51
*1319 FILLER_0_37_55
*1320 FILLER_0_37_57
*1321 FILLER_0_37_69
*1322 FILLER_0_37_81
*1323 FILLER_0_37_93
*1324 FILLER_0_38_104
*1325 FILLER_0_38_110
*1326 FILLER_0_38_116
*1327 FILLER_0_38_122
*1328 FILLER_0_38_128
*1329 FILLER_0_38_134
*1330 FILLER_0_38_141
*1331 FILLER_0_38_146
*1332 FILLER_0_38_15
*1333 FILLER_0_38_152
*1334 FILLER_0_38_158
*1335 FILLER_0_38_164
*1336 FILLER_0_38_172
*1337 FILLER_0_38_176
*1338 FILLER_0_38_182
*1339 FILLER_0_38_190
*1340 FILLER_0_38_194
*1341 FILLER_0_38_200
*1342 FILLER_0_38_206
*1343 FILLER_0_38_218
*1344 FILLER_0_38_225
*1345 FILLER_0_38_231
*1346 FILLER_0_38_256
*1347 FILLER_0_38_262
*1348 FILLER_0_38_27
*1349 FILLER_0_38_279
*1350 FILLER_0_38_281
*1351 FILLER_0_38_29
*1352 FILLER_0_38_293
*1353 FILLER_0_38_3
*1354 FILLER_0_38_309
*1355 FILLER_0_38_317
*1356 FILLER_0_38_337
*1357 FILLER_0_38_349
*1358 FILLER_0_38_41
*1359 FILLER_0_38_53
*1360 FILLER_0_38_57
*1361 FILLER_0_38_68
*1362 FILLER_0_38_74
*1363 FILLER_0_38_80
*1364 FILLER_0_38_88
*1365 FILLER_0_38_92
*1366 FILLER_0_38_98
*1367 FILLER_0_3_105
*1368 FILLER_0_3_111
*1369 FILLER_0_3_113
*1370 FILLER_0_3_125
*1371 FILLER_0_3_137
*1372 FILLER_0_3_149
*1373 FILLER_0_3_15
*1374 FILLER_0_3_161
*1375 FILLER_0_3_167
*1376 FILLER_0_3_169
*1377 FILLER_0_3_181
*1378 FILLER_0_3_193
*1379 FILLER_0_3_205
*1380 FILLER_0_3_217
*1381 FILLER_0_3_223
*1382 FILLER_0_3_225
*1383 FILLER_0_3_237
*1384 FILLER_0_3_249
*1385 FILLER_0_3_261
*1386 FILLER_0_3_27
*1387 FILLER_0_3_273
*1388 FILLER_0_3_279
*1389 FILLER_0_3_281
*1390 FILLER_0_3_293
*1391 FILLER_0_3_3
*1392 FILLER_0_3_305
*1393 FILLER_0_3_317
*1394 FILLER_0_3_329
*1395 FILLER_0_3_335
*1396 FILLER_0_3_337
*1397 FILLER_0_3_349
*1398 FILLER_0_3_39
*1399 FILLER_0_3_51
*1400 FILLER_0_3_55
*1401 FILLER_0_3_57
*1402 FILLER_0_3_69
*1403 FILLER_0_3_81
*1404 FILLER_0_3_93
*1405 FILLER_0_4_109
*1406 FILLER_0_4_121
*1407 FILLER_0_4_133
*1408 FILLER_0_4_139
*1409 FILLER_0_4_141
*1410 FILLER_0_4_15
*1411 FILLER_0_4_153
*1412 FILLER_0_4_165
*1413 FILLER_0_4_177
*1414 FILLER_0_4_189
*1415 FILLER_0_4_195
*1416 FILLER_0_4_197
*1417 FILLER_0_4_209
*1418 FILLER_0_4_221
*1419 FILLER_0_4_233
*1420 FILLER_0_4_245
*1421 FILLER_0_4_251
*1422 FILLER_0_4_253
*1423 FILLER_0_4_265
*1424 FILLER_0_4_27
*1425 FILLER_0_4_277
*1426 FILLER_0_4_289
*1427 FILLER_0_4_29
*1428 FILLER_0_4_3
*1429 FILLER_0_4_301
*1430 FILLER_0_4_307
*1431 FILLER_0_4_309
*1432 FILLER_0_4_321
*1433 FILLER_0_4_333
*1434 FILLER_0_4_345
*1435 FILLER_0_4_41
*1436 FILLER_0_4_53
*1437 FILLER_0_4_65
*1438 FILLER_0_4_77
*1439 FILLER_0_4_83
*1440 FILLER_0_4_85
*1441 FILLER_0_4_97
*1442 FILLER_0_5_105
*1443 FILLER_0_5_111
*1444 FILLER_0_5_113
*1445 FILLER_0_5_125
*1446 FILLER_0_5_137
*1447 FILLER_0_5_149
*1448 FILLER_0_5_15
*1449 FILLER_0_5_161
*1450 FILLER_0_5_167
*1451 FILLER_0_5_169
*1452 FILLER_0_5_181
*1453 FILLER_0_5_193
*1454 FILLER_0_5_205
*1455 FILLER_0_5_217
*1456 FILLER_0_5_223
*1457 FILLER_0_5_225
*1458 FILLER_0_5_237
*1459 FILLER_0_5_249
*1460 FILLER_0_5_261
*1461 FILLER_0_5_27
*1462 FILLER_0_5_273
*1463 FILLER_0_5_279
*1464 FILLER_0_5_281
*1465 FILLER_0_5_293
*1466 FILLER_0_5_3
*1467 FILLER_0_5_305
*1468 FILLER_0_5_317
*1469 FILLER_0_5_329
*1470 FILLER_0_5_335
*1471 FILLER_0_5_337
*1472 FILLER_0_5_349
*1473 FILLER_0_5_39
*1474 FILLER_0_5_51
*1475 FILLER_0_5_55
*1476 FILLER_0_5_57
*1477 FILLER_0_5_69
*1478 FILLER_0_5_81
*1479 FILLER_0_5_93
*1480 FILLER_0_6_109
*1481 FILLER_0_6_121
*1482 FILLER_0_6_133
*1483 FILLER_0_6_139
*1484 FILLER_0_6_141
*1485 FILLER_0_6_15
*1486 FILLER_0_6_153
*1487 FILLER_0_6_165
*1488 FILLER_0_6_177
*1489 FILLER_0_6_189
*1490 FILLER_0_6_195
*1491 FILLER_0_6_197
*1492 FILLER_0_6_209
*1493 FILLER_0_6_221
*1494 FILLER_0_6_233
*1495 FILLER_0_6_245