*SPEF "ieee 1481-1999"
*DESIGN "tt_um_wokwi_380005495431181313"
*DATE "11:11:11 Fri 11 11, 1111"
*VENDOR "OpenRCX"
*PROGRAM "Parallel Extraction"
*VERSION "1.0"
*DESIGN_FLOW "NAME_SCOPE LOCAL" "PIN_CAP NONE"
*DIVIDER /
*DELIMITER :
*BUS_DELIMITER []
*T_UNIT 1 NS
*C_UNIT 1 PF
*R_UNIT 1 OHM
*L_UNIT 1 HENRY

*NAME_MAP
*3 clk
*4 ena
*5 rst_n
*6 ui_in[0]
*7 ui_in[1]
*8 ui_in[2]
*9 ui_in[3]
*10 ui_in[4]
*11 ui_in[5]
*12 ui_in[6]
*13 ui_in[7]
*14 uio_in[0]
*15 uio_in[1]
*16 uio_in[2]
*17 uio_in[3]
*18 uio_in[4]
*19 uio_in[5]
*20 uio_in[6]
*21 uio_in[7]
*22 net19
*23 net20
*24 net21
*25 net22
*26 net23
*27 uio_oe[5]
*28 uio_oe[6]
*29 uio_oe[7]
*30 net24
*31 net25
*32 net26
*33 net27
*34 net28
*35 uio_out[5]
*36 uio_out[6]
*37 uio_out[7]
*38 uo_out[0]
*39 uo_out[1]
*40 uo_out[2]
*41 uo_out[3]
*42 uo_out[4]
*43 uo_out[5]
*44 uo_out[6]
*45 uo_out[7]
*46 _000_
*47 _001_
*48 _002_
*49 _003_
*50 _004_
*51 _005_
*52 _006_
*53 _007_
*54 _008_
*55 _009_
*56 _010_
*57 _011_
*58 _012_
*59 _013_
*60 _014_
*61 _015_
*62 _016_
*63 _017_
*64 _018_
*65 _019_
*66 _020_
*67 _021_
*68 _022_
*69 _023_
*70 _024_
*71 _025_
*72 _026_
*73 _027_
*74 _028_
*75 _029_
*76 _030_
*77 _031_
*78 _032_
*79 _033_
*80 _034_
*81 _035_
*82 _036_
*83 _037_
*84 _038_
*85 _039_
*86 _040_
*87 _041_
*88 _047_
*89 _048_
*90 _049_
*91 _050_
*92 _051_
*93 _052_
*94 _053_
*95 _054_
*96 _055_
*97 _056_
*98 _057_
*99 _058_
*100 _059_
*101 _060_
*102 _061_
*103 _062_
*104 _063_
*105 _064_
*106 _065_
*107 _066_
*108 _067_
*109 _068_
*110 _069_
*111 _070_
*112 _071_
*113 _072_
*114 _073_
*115 _074_
*116 _075_
*117 _076_
*118 _077_
*119 _078_
*120 _079_
*121 _080_
*122 _081_
*123 _082_
*124 _083_
*125 _084_
*126 _085_
*127 _086_
*128 _087_
*129 _088_
*130 _089_
*131 _090_
*132 _091_
*133 and1\.a
*134 and1\.out
*135 and12\.out
*136 and13\.b
*137 and13\.out
*138 and14\.a
*139 and14\.b
*140 and15\.a
*141 and15\.b
*142 and15\.out
*143 and16\.out
*144 and17\.b
*145 and18\.b
*146 and19\.b
*147 and2\.a
*148 and20\.b
*149 and21\.a
*150 and21\.b
*151 and21\.out
*152 and22\.b
*153 and23\.b
*154 and24\.b
*155 and26\.a
*156 and27\.a
*157 and28\.a
*158 and28\.b
*159 and29\.b
*160 and3\.a
*161 and31\.a
*162 and44\.a
*163 and45\.a
*164 and45\.out
*165 and46\.out
*166 and47\.a
*167 and47\.out
*168 and48\.out
*169 and6\.a
*170 and6\.b
*171 and7\.a
*172 and9\.a
*173 clknet_0_and46\.out
*174 clknet_0_and48\.out
*175 clknet_0_clk
*176 clknet_1_0__leaf_and46\.out
*177 clknet_1_0__leaf_and48\.out
*178 clknet_1_0__leaf_clk
*179 clknet_1_1__leaf_and46\.out
*180 clknet_1_1__leaf_and48\.out
*181 clknet_1_1__leaf_clk
*182 flop1\.clk
*183 flop1\.d
*184 flop1\.q
*185 flop12\.d
*186 flop12\.q
*187 flop13\.d
*188 flop13\.q
*189 flop14\.d
*190 flop14\.q
*191 flop15\.d
*192 flop17\.clk
*193 flop17\.d
*194 flop17\.q
*195 flop18\.d
*196 flop18\.q
*197 flop19\.d
*198 flop19\.q
*199 flop20\.d
*200 flop20\.q
*201 flop21\.d
*202 flop21\.q
*203 flop22\.d
*204 flop23\.d
*205 flop24\.d
*206 flop26\.q
*207 flop3\.q
*208 flop32\.q
*209 flop46\.d
*210 flop46\.q
*211 flop47\.d
*212 flop5\.clk
*213 flop52\.q
*214 flop56\.q
*215 flop63\.clk
*216 flop63\.d
*217 flop7\.d
*218 flop7\.q
*219 flop8\.q
*220 net1
*221 net10
*222 net11
*223 net12
*224 net13
*225 net14
*226 net15
*227 net16
*228 net17
*229 net18
*230 net2
*231 net29
*232 net3
*233 net30
*234 net31
*235 net32
*236 net33
*237 net34
*238 net35
*239 net36
*240 net37
*241 net38
*242 net39
*243 net4
*244 net40
*245 net41
*246 net42
*247 net43
*248 net5
*249 net6
*250 net7
*251 net8
*252 net9
*253 or6\.out
*254 xor1\.out
*255 FILLER_0_0_109
*256 FILLER_0_0_113
*257 FILLER_0_0_125
*258 FILLER_0_0_137
*259 FILLER_0_0_141
*260 FILLER_0_0_15
*261 FILLER_0_0_153
*262 FILLER_0_0_165
*263 FILLER_0_0_169
*264 FILLER_0_0_181
*265 FILLER_0_0_193
*266 FILLER_0_0_197
*267 FILLER_0_0_209
*268 FILLER_0_0_221
*269 FILLER_0_0_225
*270 FILLER_0_0_237
*271 FILLER_0_0_249
*272 FILLER_0_0_253
*273 FILLER_0_0_265
*274 FILLER_0_0_27
*275 FILLER_0_0_277
*276 FILLER_0_0_281
*277 FILLER_0_0_29
*278 FILLER_0_0_293
*279 FILLER_0_0_3
*280 FILLER_0_0_305
*281 FILLER_0_0_309
*282 FILLER_0_0_321
*283 FILLER_0_0_333
*284 FILLER_0_0_337
*285 FILLER_0_0_349
*286 FILLER_0_0_41
*287 FILLER_0_0_53
*288 FILLER_0_0_57
*289 FILLER_0_0_69
*290 FILLER_0_0_81
*291 FILLER_0_0_85
*292 FILLER_0_0_97
*293 FILLER_0_10_109
*294 FILLER_0_10_121
*295 FILLER_0_10_133
*296 FILLER_0_10_139
*297 FILLER_0_10_141
*298 FILLER_0_10_15
*299 FILLER_0_10_153
*300 FILLER_0_10_165
*301 FILLER_0_10_177
*302 FILLER_0_10_189
*303 FILLER_0_10_195
*304 FILLER_0_10_197
*305 FILLER_0_10_209
*306 FILLER_0_10_221
*307 FILLER_0_10_233
*308 FILLER_0_10_245
*309 FILLER_0_10_251
*310 FILLER_0_10_253
*311 FILLER_0_10_265
*312 FILLER_0_10_27
*313 FILLER_0_10_277
*314 FILLER_0_10_289
*315 FILLER_0_10_29
*316 FILLER_0_10_3
*317 FILLER_0_10_301
*318 FILLER_0_10_307
*319 FILLER_0_10_309
*320 FILLER_0_10_321
*321 FILLER_0_10_333
*322 FILLER_0_10_345
*323 FILLER_0_10_41
*324 FILLER_0_10_53
*325 FILLER_0_10_65
*326 FILLER_0_10_77
*327 FILLER_0_10_83
*328 FILLER_0_10_85
*329 FILLER_0_10_97
*330 FILLER_0_11_105
*331 FILLER_0_11_111
*332 FILLER_0_11_113
*333 FILLER_0_11_125
*334 FILLER_0_11_137
*335 FILLER_0_11_149
*336 FILLER_0_11_15
*337 FILLER_0_11_161
*338 FILLER_0_11_167
*339 FILLER_0_11_169
*340 FILLER_0_11_181
*341 FILLER_0_11_193
*342 FILLER_0_11_205
*343 FILLER_0_11_217
*344 FILLER_0_11_223
*345 FILLER_0_11_225
*346 FILLER_0_11_237
*347 FILLER_0_11_249
*348 FILLER_0_11_261
*349 FILLER_0_11_27
*350 FILLER_0_11_273
*351 FILLER_0_11_279
*352 FILLER_0_11_281
*353 FILLER_0_11_293
*354 FILLER_0_11_3
*355 FILLER_0_11_305
*356 FILLER_0_11_317
*357 FILLER_0_11_329
*358 FILLER_0_11_335
*359 FILLER_0_11_337
*360 FILLER_0_11_349
*361 FILLER_0_11_39
*362 FILLER_0_11_51
*363 FILLER_0_11_55
*364 FILLER_0_11_57
*365 FILLER_0_11_69
*366 FILLER_0_11_81
*367 FILLER_0_11_93
*368 FILLER_0_12_109
*369 FILLER_0_12_121
*370 FILLER_0_12_133
*371 FILLER_0_12_139
*372 FILLER_0_12_141
*373 FILLER_0_12_15
*374 FILLER_0_12_153
*375 FILLER_0_12_165
*376 FILLER_0_12_177
*377 FILLER_0_12_189
*378 FILLER_0_12_195
*379 FILLER_0_12_197
*380 FILLER_0_12_209
*381 FILLER_0_12_221
*382 FILLER_0_12_233
*383 FILLER_0_12_245
*384 FILLER_0_12_251
*385 FILLER_0_12_253
*386 FILLER_0_12_265
*387 FILLER_0_12_27
*388 FILLER_0_12_277
*389 FILLER_0_12_289
*390 FILLER_0_12_29
*391 FILLER_0_12_3
*392 FILLER_0_12_301
*393 FILLER_0_12_307
*394 FILLER_0_12_309
*395 FILLER_0_12_321
*396 FILLER_0_12_333
*397 FILLER_0_12_345
*398 FILLER_0_12_41
*399 FILLER_0_12_53
*400 FILLER_0_12_65
*401 FILLER_0_12_77
*402 FILLER_0_12_83
*403 FILLER_0_12_85
*404 FILLER_0_12_97
*405 FILLER_0_13_105
*406 FILLER_0_13_111
*407 FILLER_0_13_113
*408 FILLER_0_13_125
*409 FILLER_0_13_137
*410 FILLER_0_13_149
*411 FILLER_0_13_15
*412 FILLER_0_13_161
*413 FILLER_0_13_167
*414 FILLER_0_13_169
*415 FILLER_0_13_181
*416 FILLER_0_13_193
*417 FILLER_0_13_205
*418 FILLER_0_13_217
*419 FILLER_0_13_223
*420 FILLER_0_13_225
*421 FILLER_0_13_237
*422 FILLER_0_13_249
*423 FILLER_0_13_261
*424 FILLER_0_13_27
*425 FILLER_0_13_273
*426 FILLER_0_13_279
*427 FILLER_0_13_281
*428 FILLER_0_13_293
*429 FILLER_0_13_3
*430 FILLER_0_13_305
*431 FILLER_0_13_317
*432 FILLER_0_13_329
*433 FILLER_0_13_335
*434 FILLER_0_13_337
*435 FILLER_0_13_349
*436 FILLER_0_13_39
*437 FILLER_0_13_51
*438 FILLER_0_13_55
*439 FILLER_0_13_57
*440 FILLER_0_13_69
*441 FILLER_0_13_81
*442 FILLER_0_13_93
*443 FILLER_0_14_109
*444 FILLER_0_14_121
*445 FILLER_0_14_133
*446 FILLER_0_14_139
*447 FILLER_0_14_141
*448 FILLER_0_14_15
*449 FILLER_0_14_153
*450 FILLER_0_14_165
*451 FILLER_0_14_177
*452 FILLER_0_14_189
*453 FILLER_0_14_195
*454 FILLER_0_14_197
*455 FILLER_0_14_209
*456 FILLER_0_14_221
*457 FILLER_0_14_233
*458 FILLER_0_14_245
*459 FILLER_0_14_251
*460 FILLER_0_14_253
*461 FILLER_0_14_265
*462 FILLER_0_14_27
*463 FILLER_0_14_277
*464 FILLER_0_14_289
*465 FILLER_0_14_29
*466 FILLER_0_14_3
*467 FILLER_0_14_301
*468 FILLER_0_14_307
*469 FILLER_0_14_309
*470 FILLER_0_14_321
*471 FILLER_0_14_333
*472 FILLER_0_14_345
*473 FILLER_0_14_41
*474 FILLER_0_14_53
*475 FILLER_0_14_65
*476 FILLER_0_14_77
*477 FILLER_0_14_83
*478 FILLER_0_14_85
*479 FILLER_0_14_97
*480 FILLER_0_15_105
*481 FILLER_0_15_111
*482 FILLER_0_15_113
*483 FILLER_0_15_125
*484 FILLER_0_15_137
*485 FILLER_0_15_149
*486 FILLER_0_15_15
*487 FILLER_0_15_161
*488 FILLER_0_15_167
*489 FILLER_0_15_169
*490 FILLER_0_15_181
*491 FILLER_0_15_193
*492 FILLER_0_15_205
*493 FILLER_0_15_217
*494 FILLER_0_15_223
*495 FILLER_0_15_225
*496 FILLER_0_15_237
*497 FILLER_0_15_249
*498 FILLER_0_15_261
*499 FILLER_0_15_27
*500 FILLER_0_15_273
*501 FILLER_0_15_279
*502 FILLER_0_15_281
*503 FILLER_0_15_293
*504 FILLER_0_15_3
*505 FILLER_0_15_305
*506 FILLER_0_15_317
*507 FILLER_0_15_329
*508 FILLER_0_15_335
*509 FILLER_0_15_337
*510 FILLER_0_15_349
*511 FILLER_0_15_39
*512 FILLER_0_15_51
*513 FILLER_0_15_55
*514 FILLER_0_15_57
*515 FILLER_0_15_69
*516 FILLER_0_15_81
*517 FILLER_0_15_93
*518 FILLER_0_16_109
*519 FILLER_0_16_121
*520 FILLER_0_16_133
*521 FILLER_0_16_139
*522 FILLER_0_16_141
*523 FILLER_0_16_15
*524 FILLER_0_16_153
*525 FILLER_0_16_165
*526 FILLER_0_16_177
*527 FILLER_0_16_189
*528 FILLER_0_16_195
*529 FILLER_0_16_197
*530 FILLER_0_16_209
*531 FILLER_0_16_221
*532 FILLER_0_16_233
*533 FILLER_0_16_245
*534 FILLER_0_16_251
*535 FILLER_0_16_253
*536 FILLER_0_16_265
*537 FILLER_0_16_27
*538 FILLER_0_16_277
*539 FILLER_0_16_289
*540 FILLER_0_16_29
*541 FILLER_0_16_3
*542 FILLER_0_16_301
*543 FILLER_0_16_307
*544 FILLER_0_16_309
*545 FILLER_0_16_321
*546 FILLER_0_16_333
*547 FILLER_0_16_345
*548 FILLER_0_16_41
*549 FILLER_0_16_53
*550 FILLER_0_16_65
*551 FILLER_0_16_77
*552 FILLER_0_16_83
*553 FILLER_0_16_85
*554 FILLER_0_16_97
*555 FILLER_0_17_105
*556 FILLER_0_17_111
*557 FILLER_0_17_113
*558 FILLER_0_17_125
*559 FILLER_0_17_137
*560 FILLER_0_17_149
*561 FILLER_0_17_15
*562 FILLER_0_17_161
*563 FILLER_0_17_167
*564 FILLER_0_17_169
*565 FILLER_0_17_181
*566 FILLER_0_17_193
*567 FILLER_0_17_205
*568 FILLER_0_17_217
*569 FILLER_0_17_223
*570 FILLER_0_17_225
*571 FILLER_0_17_237
*572 FILLER_0_17_249
*573 FILLER_0_17_261
*574 FILLER_0_17_27
*575 FILLER_0_17_273
*576 FILLER_0_17_279
*577 FILLER_0_17_281
*578 FILLER_0_17_293
*579 FILLER_0_17_3
*580 FILLER_0_17_305
*581 FILLER_0_17_317
*582 FILLER_0_17_329
*583 FILLER_0_17_335
*584 FILLER_0_17_337
*585 FILLER_0_17_349
*586 FILLER_0_17_39
*587 FILLER_0_17_51
*588 FILLER_0_17_55
*589 FILLER_0_17_57
*590 FILLER_0_17_69
*591 FILLER_0_17_81
*592 FILLER_0_17_93
*593 FILLER_0_18_109
*594 FILLER_0_18_121
*595 FILLER_0_18_133
*596 FILLER_0_18_139
*597 FILLER_0_18_141
*598 FILLER_0_18_15
*599 FILLER_0_18_153
*600 FILLER_0_18_165
*601 FILLER_0_18_177
*602 FILLER_0_18_189
*603 FILLER_0_18_195
*604 FILLER_0_18_197
*605 FILLER_0_18_209
*606 FILLER_0_18_221
*607 FILLER_0_18_233
*608 FILLER_0_18_245
*609 FILLER_0_18_251
*610 FILLER_0_18_253
*611 FILLER_0_18_265
*612 FILLER_0_18_27
*613 FILLER_0_18_277
*614 FILLER_0_18_289
*615 FILLER_0_18_29
*616 FILLER_0_18_3
*617 FILLER_0_18_301
*618 FILLER_0_18_307
*619 FILLER_0_18_309
*620 FILLER_0_18_321
*621 FILLER_0_18_333
*622 FILLER_0_18_345
*623 FILLER_0_18_41
*624 FILLER_0_18_53
*625 FILLER_0_18_65
*626 FILLER_0_18_77
*627 FILLER_0_18_83
*628 FILLER_0_18_85
*629 FILLER_0_18_97
*630 FILLER_0_19_105
*631 FILLER_0_19_111
*632 FILLER_0_19_113
*633 FILLER_0_19_125
*634 FILLER_0_19_137
*635 FILLER_0_19_149
*636 FILLER_0_19_15
*637 FILLER_0_19_161
*638 FILLER_0_19_167
*639 FILLER_0_19_169
*640 FILLER_0_19_181
*641 FILLER_0_19_193
*642 FILLER_0_19_205
*643 FILLER_0_19_217
*644 FILLER_0_19_223
*645 FILLER_0_19_225
*646 FILLER_0_19_237
*647 FILLER_0_19_249
*648 FILLER_0_19_261
*649 FILLER_0_19_27
*650 FILLER_0_19_273
*651 FILLER_0_19_279
*652 FILLER_0_19_281
*653 FILLER_0_19_293
*654 FILLER_0_19_3
*655 FILLER_0_19_305
*656 FILLER_0_19_317
*657 FILLER_0_19_329
*658 FILLER_0_19_335
*659 FILLER_0_19_337
*660 FILLER_0_19_349
*661 FILLER_0_19_39
*662 FILLER_0_19_51
*663 FILLER_0_19_55
*664 FILLER_0_19_57
*665 FILLER_0_19_69
*666 FILLER_0_19_81
*667 FILLER_0_19_93
*668 FILLER_0_1_105
*669 FILLER_0_1_111
*670 FILLER_0_1_113
*671 FILLER_0_1_125
*672 FILLER_0_1_137
*673 FILLER_0_1_149
*674 FILLER_0_1_15
*675 FILLER_0_1_161
*676 FILLER_0_1_167
*677 FILLER_0_1_169
*678 FILLER_0_1_181
*679 FILLER_0_1_193
*680 FILLER_0_1_205
*681 FILLER_0_1_217
*682 FILLER_0_1_223
*683 FILLER_0_1_225
*684 FILLER_0_1_237
*685 FILLER_0_1_249
*686 FILLER_0_1_261
*687 FILLER_0_1_27
*688 FILLER_0_1_273
*689 FILLER_0_1_279
*690 FILLER_0_1_281
*691 FILLER_0_1_293
*692 FILLER_0_1_3
*693 FILLER_0_1_305
*694 FILLER_0_1_317
*695 FILLER_0_1_329
*696 FILLER_0_1_335
*697 FILLER_0_1_337
*698 FILLER_0_1_349
*699 FILLER_0_1_39
*700 FILLER_0_1_51
*701 FILLER_0_1_55
*702 FILLER_0_1_57
*703 FILLER_0_1_69
*704 FILLER_0_1_81
*705 FILLER_0_1_93
*706 FILLER_0_20_109
*707 FILLER_0_20_121
*708 FILLER_0_20_133
*709 FILLER_0_20_139
*710 FILLER_0_20_141
*711 FILLER_0_20_15
*712 FILLER_0_20_153
*713 FILLER_0_20_165
*714 FILLER_0_20_177
*715 FILLER_0_20_189
*716 FILLER_0_20_195
*717 FILLER_0_20_197
*718 FILLER_0_20_209
*719 FILLER_0_20_221
*720 FILLER_0_20_233
*721 FILLER_0_20_245
*722 FILLER_0_20_251
*723 FILLER_0_20_253
*724 FILLER_0_20_265
*725 FILLER_0_20_27
*726 FILLER_0_20_277
*727 FILLER_0_20_289
*728 FILLER_0_20_29
*729 FILLER_0_20_3
*730 FILLER_0_20_301
*731 FILLER_0_20_307
*732 FILLER_0_20_309
*733 FILLER_0_20_321
*734 FILLER_0_20_333
*735 FILLER_0_20_345
*736 FILLER_0_20_41
*737 FILLER_0_20_53
*738 FILLER_0_20_65
*739 FILLER_0_20_77
*740 FILLER_0_20_83
*741 FILLER_0_20_85
*742 FILLER_0_20_97
*743 FILLER_0_21_105
*744 FILLER_0_21_111
*745 FILLER_0_21_113
*746 FILLER_0_21_125
*747 FILLER_0_21_137
*748 FILLER_0_21_149
*749 FILLER_0_21_15
*750 FILLER_0_21_161
*751 FILLER_0_21_167
*752 FILLER_0_21_169
*753 FILLER_0_21_181
*754 FILLER_0_21_193
*755 FILLER_0_21_205
*756 FILLER_0_21_217
*757 FILLER_0_21_223
*758 FILLER_0_21_225
*759 FILLER_0_21_237
*760 FILLER_0_21_249
*761 FILLER_0_21_261
*762 FILLER_0_21_27
*763 FILLER_0_21_273
*764 FILLER_0_21_279
*765 FILLER_0_21_281
*766 FILLER_0_21_293
*767 FILLER_0_21_3
*768 FILLER_0_21_305
*769 FILLER_0_21_317
*770 FILLER_0_21_329
*771 FILLER_0_21_335
*772 FILLER_0_21_337
*773 FILLER_0_21_349
*774 FILLER_0_21_39
*775 FILLER_0_21_51
*776 FILLER_0_21_55
*777 FILLER_0_21_57
*778 FILLER_0_21_69
*779 FILLER_0_21_81
*780 FILLER_0_21_93
*781 FILLER_0_22_109
*782 FILLER_0_22_121
*783 FILLER_0_22_133
*784 FILLER_0_22_139
*785 FILLER_0_22_141
*786 FILLER_0_22_15
*787 FILLER_0_22_153
*788 FILLER_0_22_165
*789 FILLER_0_22_177
*790 FILLER_0_22_189
*791 FILLER_0_22_195
*792 FILLER_0_22_197
*793 FILLER_0_22_209
*794 FILLER_0_22_221
*795 FILLER_0_22_233
*796 FILLER_0_22_245
*797 FILLER_0_22_251
*798 FILLER_0_22_253
*799 FILLER_0_22_265
*800 FILLER_0_22_27
*801 FILLER_0_22_277
*802 FILLER_0_22_289
*803 FILLER_0_22_29
*804 FILLER_0_22_3
*805 FILLER_0_22_301
*806 FILLER_0_22_307
*807 FILLER_0_22_309
*808 FILLER_0_22_321
*809 FILLER_0_22_333
*810 FILLER_0_22_345
*811 FILLER_0_22_41
*812 FILLER_0_22_53
*813 FILLER_0_22_65
*814 FILLER_0_22_77
*815 FILLER_0_22_83
*816 FILLER_0_22_85
*817 FILLER_0_22_97
*818 FILLER_0_23_105
*819 FILLER_0_23_111
*820 FILLER_0_23_113
*821 FILLER_0_23_125
*822 FILLER_0_23_137
*823 FILLER_0_23_149
*824 FILLER_0_23_15
*825 FILLER_0_23_161
*826 FILLER_0_23_167
*827 FILLER_0_23_169
*828 FILLER_0_23_181
*829 FILLER_0_23_193
*830 FILLER_0_23_205
*831 FILLER_0_23_217
*832 FILLER_0_23_223
*833 FILLER_0_23_225
*834 FILLER_0_23_237
*835 FILLER_0_23_249
*836 FILLER_0_23_261
*837 FILLER_0_23_27
*838 FILLER_0_23_273
*839 FILLER_0_23_279
*840 FILLER_0_23_281
*841 FILLER_0_23_293
*842 FILLER_0_23_3
*843 FILLER_0_23_305
*844 FILLER_0_23_317
*845 FILLER_0_23_329
*846 FILLER_0_23_335
*847 FILLER_0_23_337
*848 FILLER_0_23_349
*849 FILLER_0_23_39
*850 FILLER_0_23_51
*851 FILLER_0_23_55
*852 FILLER_0_23_57
*853 FILLER_0_23_69
*854 FILLER_0_23_81
*855 FILLER_0_23_93
*856 FILLER_0_24_109
*857 FILLER_0_24_121
*858 FILLER_0_24_133
*859 FILLER_0_24_139
*860 FILLER_0_24_141
*861 FILLER_0_24_15
*862 FILLER_0_24_153
*863 FILLER_0_24_165
*864 FILLER_0_24_177
*865 FILLER_0_24_189
*866 FILLER_0_24_195
*867 FILLER_0_24_197
*868 FILLER_0_24_209
*869 FILLER_0_24_221
*870 FILLER_0_24_233
*871 FILLER_0_24_245
*872 FILLER_0_24_251
*873 FILLER_0_24_253
*874 FILLER_0_24_265
*875 FILLER_0_24_27
*876 FILLER_0_24_277
*877 FILLER_0_24_289
*878 FILLER_0_24_29
*879 FILLER_0_24_3
*880 FILLER_0_24_301
*881 FILLER_0_24_307
*882 FILLER_0_24_309
*883 FILLER_0_24_321
*884 FILLER_0_24_333
*885 FILLER_0_24_345
*886 FILLER_0_24_41
*887 FILLER_0_24_53
*888 FILLER_0_24_65
*889 FILLER_0_24_77
*890 FILLER_0_24_83
*891 FILLER_0_24_85
*892 FILLER_0_24_97
*893 FILLER_0_25_105
*894 FILLER_0_25_111
*895 FILLER_0_25_113
*896 FILLER_0_25_125
*897 FILLER_0_25_137
*898 FILLER_0_25_149
*899 FILLER_0_25_15
*900 FILLER_0_25_161
*901 FILLER_0_25_167
*902 FILLER_0_25_169
*903 FILLER_0_25_181
*904 FILLER_0_25_193
*905 FILLER_0_25_205
*906 FILLER_0_25_217
*907 FILLER_0_25_223
*908 FILLER_0_25_225
*909 FILLER_0_25_237
*910 FILLER_0_25_27
*911 FILLER_0_25_271
*912 FILLER_0_25_3
*913 FILLER_0_25_301
*914 FILLER_0_25_313
*915 FILLER_0_25_325
*916 FILLER_0_25_333
*917 FILLER_0_25_337
*918 FILLER_0_25_349
*919 FILLER_0_25_39
*920 FILLER_0_25_51
*921 FILLER_0_25_55
*922 FILLER_0_25_57
*923 FILLER_0_25_69
*924 FILLER_0_25_81
*925 FILLER_0_25_93
*926 FILLER_0_26_109
*927 FILLER_0_26_121
*928 FILLER_0_26_133
*929 FILLER_0_26_139
*930 FILLER_0_26_141
*931 FILLER_0_26_15
*932 FILLER_0_26_153
*933 FILLER_0_26_165
*934 FILLER_0_26_177
*935 FILLER_0_26_189
*936 FILLER_0_26_195
*937 FILLER_0_26_197
*938 FILLER_0_26_209
*939 FILLER_0_26_221
*940 FILLER_0_26_233
*941 FILLER_0_26_242
*942 FILLER_0_26_246
*943 FILLER_0_26_250
*944 FILLER_0_26_27
*945 FILLER_0_26_29
*946 FILLER_0_26_3
*947 FILLER_0_26_309
*948 FILLER_0_26_321
*949 FILLER_0_26_333
*950 FILLER_0_26_345
*951 FILLER_0_26_41
*952 FILLER_0_26_53
*953 FILLER_0_26_65
*954 FILLER_0_26_77
*955 FILLER_0_26_83
*956 FILLER_0_26_85
*957 FILLER_0_26_97
*958 FILLER_0_27_105
*959 FILLER_0_27_111
*960 FILLER_0_27_113
*961 FILLER_0_27_125
*962 FILLER_0_27_137
*963 FILLER_0_27_149
*964 FILLER_0_27_15
*965 FILLER_0_27_161
*966 FILLER_0_27_167
*967 FILLER_0_27_169
*968 FILLER_0_27_181
*969 FILLER_0_27_193
*970 FILLER_0_27_200
*971 FILLER_0_27_212
*972 FILLER_0_27_217
*973 FILLER_0_27_223
*974 FILLER_0_27_248
*975 FILLER_0_27_253
*976 FILLER_0_27_257
*977 FILLER_0_27_27
*978 FILLER_0_27_270
*979 FILLER_0_27_278
*980 FILLER_0_27_3
*981 FILLER_0_27_307
*982 FILLER_0_27_319
*983 FILLER_0_27_331
*984 FILLER_0_27_335
*985 FILLER_0_27_337
*986 FILLER_0_27_349
*987 FILLER_0_27_39
*988 FILLER_0_27_51
*989 FILLER_0_27_55
*990 FILLER_0_27_57
*991 FILLER_0_27_69
*992 FILLER_0_27_81
*993 FILLER_0_27_93
*994 FILLER_0_28_109
*995 FILLER_0_28_121
*996 FILLER_0_28_133
*997 FILLER_0_28_139
*998 FILLER_0_28_141
*999 FILLER_0_28_15
*1000 FILLER_0_28_153
*1001 FILLER_0_28_165
*1002 FILLER_0_28_173
*1003 FILLER_0_28_195
*1004 FILLER_0_28_203
*1005 FILLER_0_28_224
*1006 FILLER_0_28_236
*1007 FILLER_0_28_248
*1008 FILLER_0_28_253
*1009 FILLER_0_28_265
*1010 FILLER_0_28_27
*1011 FILLER_0_28_277
*1012 FILLER_0_28_289
*1013 FILLER_0_28_29
*1014 FILLER_0_28_3
*1015 FILLER_0_28_307
*1016 FILLER_0_28_309
*1017 FILLER_0_28_321
*1018 FILLER_0_28_333
*1019 FILLER_0_28_345
*1020 FILLER_0_28_41
*1021 FILLER_0_28_53
*1022 FILLER_0_28_65
*1023 FILLER_0_28_77
*1024 FILLER_0_28_83
*1025 FILLER_0_28_85
*1026 FILLER_0_28_97
*1027 FILLER_0_29_105
*1028 FILLER_0_29_111
*1029 FILLER_0_29_113
*1030 FILLER_0_29_125
*1031 FILLER_0_29_137
*1032 FILLER_0_29_149
*1033 FILLER_0_29_15
*1034 FILLER_0_29_161
*1035 FILLER_0_29_167
*1036 FILLER_0_29_169
*1037 FILLER_0_29_203
*1038 FILLER_0_29_234
*1039 FILLER_0_29_246
*1040 FILLER_0_29_254
*1041 FILLER_0_29_259
*1042 FILLER_0_29_263
*1043 FILLER_0_29_27
*1044 FILLER_0_29_273
*1045 FILLER_0_29_279
*1046 FILLER_0_29_281
*1047 FILLER_0_29_3
*1048 FILLER_0_29_310
*1049 FILLER_0_29_322
*1050 FILLER_0_29_334
*1051 FILLER_0_29_337
*1052 FILLER_0_29_349
*1053 FILLER_0_29_39
*1054 FILLER_0_29_51
*1055 FILLER_0_29_55
*1056 FILLER_0_29_57
*1057 FILLER_0_29_69
*1058 FILLER_0_29_81
*1059 FILLER_0_29_93
*1060 FILLER_0_2_109
*1061 FILLER_0_2_121
*1062 FILLER_0_2_133
*1063 FILLER_0_2_139
*1064 FILLER_0_2_141
*1065 FILLER_0_2_15
*1066 FILLER_0_2_153
*1067 FILLER_0_2_165
*1068 FILLER_0_2_177
*1069 FILLER_0_2_189
*1070 FILLER_0_2_195
*1071 FILLER_0_2_197
*1072 FILLER_0_2_209
*1073 FILLER_0_2_221
*1074 FILLER_0_2_233
*1075 FILLER_0_2_245
*1076 FILLER_0_2_251
*1077 FILLER_0_2_253
*1078 FILLER_0_2_265
*1079 FILLER_0_2_27
*1080 FILLER_0_2_277
*1081 FILLER_0_2_289
*1082 FILLER_0_2_29
*1083 FILLER_0_2_3
*1084 FILLER_0_2_301
*1085 FILLER_0_2_307
*1086 FILLER_0_2_309
*1087 FILLER_0_2_321
*1088 FILLER_0_2_333
*1089 FILLER_0_2_345
*1090 FILLER_0_2_41
*1091 FILLER_0_2_53
*1092 FILLER_0_2_65
*1093 FILLER_0_2_77
*1094 FILLER_0_2_83
*1095 FILLER_0_2_85
*1096 FILLER_0_2_97
*1097 FILLER_0_30_109
*1098 FILLER_0_30_121
*1099 FILLER_0_30_133
*1100 FILLER_0_30_139
*1101 FILLER_0_30_141
*1102 FILLER_0_30_15
*1103 FILLER_0_30_153
*1104 FILLER_0_30_165
*1105 FILLER_0_30_191
*1106 FILLER_0_30_195
*1107 FILLER_0_30_205
*1108 FILLER_0_30_213
*1109 FILLER_0_30_247
*1110 FILLER_0_30_251
*1111 FILLER_0_30_27
*1112 FILLER_0_30_279
*1113 FILLER_0_30_29
*1114 FILLER_0_30_3
*1115 FILLER_0_30_306
*1116 FILLER_0_30_314
*1117 FILLER_0_30_326
*1118 FILLER_0_30_338
*1119 FILLER_0_30_350
*1120 FILLER_0_30_41
*1121 FILLER_0_30_53
*1122 FILLER_0_30_65
*1123 FILLER_0_30_77
*1124 FILLER_0_30_83
*1125 FILLER_0_30_85
*1126 FILLER_0_30_97
*1127 FILLER_0_31_105
*1128 FILLER_0_31_111
*1129 FILLER_0_31_113
*1130 FILLER_0_31_125
*1131 FILLER_0_31_137
*1132 FILLER_0_31_145
*1133 FILLER_0_31_15
*1134 FILLER_0_31_167
*1135 FILLER_0_31_169
*1136 FILLER_0_31_185
*1137 FILLER_0_31_198
*1138 FILLER_0_31_210
*1139 FILLER_0_31_235
*1140 FILLER_0_31_250
*1141 FILLER_0_31_27
*1142 FILLER_0_31_277
*1143 FILLER_0_31_298
*1144 FILLER_0_31_3
*1145 FILLER_0_31_323
*1146 FILLER_0_31_335
*1147 FILLER_0_31_337
*1148 FILLER_0_31_349
*1149 FILLER_0_31_39
*1150 FILLER_0_31_51
*1151 FILLER_0_31_55
*1152 FILLER_0_31_57
*1153 FILLER_0_31_69
*1154 FILLER_0_31_81
*1155 FILLER_0_31_93
*1156 FILLER_0_32_109
*1157 FILLER_0_32_121
*1158 FILLER_0_32_133
*1159 FILLER_0_32_139
*1160 FILLER_0_32_141
*1161 FILLER_0_32_15
*1162 FILLER_0_32_189
*1163 FILLER_0_32_195
*1164 FILLER_0_32_197
*1165 FILLER_0_32_209
*1166 FILLER_0_32_240
*1167 FILLER_0_32_253
*1168 FILLER_0_32_259
*1169 FILLER_0_32_268
*1170 FILLER_0_32_27
*1171 FILLER_0_32_274
*1172 FILLER_0_32_279
*1173 FILLER_0_32_29
*1174 FILLER_0_32_291
*1175 FILLER_0_32_299
*1176 FILLER_0_32_3
*1177 FILLER_0_32_329
*1178 FILLER_0_32_341
*1179 FILLER_0_32_349
*1180 FILLER_0_32_41
*1181 FILLER_0_32_53
*1182 FILLER_0_32_65
*1183 FILLER_0_32_77
*1184 FILLER_0_32_83
*1185 FILLER_0_32_85
*1186 FILLER_0_32_97
*1187 FILLER_0_33_133
*1188 FILLER_0_33_15
*1189 FILLER_0_33_162
*1190 FILLER_0_33_169
*1191 FILLER_0_33_178
*1192 FILLER_0_33_186
*1193 FILLER_0_33_192
*1194 FILLER_0_33_235
*1195 FILLER_0_33_247
*1196 FILLER_0_33_27
*1197 FILLER_0_33_278
*1198 FILLER_0_33_281
*1199 FILLER_0_33_293
*1200 FILLER_0_33_299
*1201 FILLER_0_33_3
*1202 FILLER_0_33_321
*1203 FILLER_0_33_333
*1204 FILLER_0_33_337
*1205 FILLER_0_33_349
*1206 FILLER_0_33_39
*1207 FILLER_0_33_51
*1208 FILLER_0_33_55
*1209 FILLER_0_33_57
*1210 FILLER_0_33_69
*1211 FILLER_0_33_81
*1212 FILLER_0_33_93
*1213 FILLER_0_34_108
*1214 FILLER_0_34_132
*1215 FILLER_0_34_141
*1216 FILLER_0_34_145
*1217 FILLER_0_34_149
*1218 FILLER_0_34_15
*1219 FILLER_0_34_161
*1220 FILLER_0_34_173
*1221 FILLER_0_34_181
*1222 FILLER_0_34_193
*1223 FILLER_0_34_197
*1224 FILLER_0_34_224
*1225 FILLER_0_34_236
*1226 FILLER_0_34_253
*1227 FILLER_0_34_27
*1228 FILLER_0_34_288
*1229 FILLER_0_34_29
*1230 FILLER_0_34_296
*1231 FILLER_0_34_3
*1232 FILLER_0_34_329
*1233 FILLER_0_34_341
*1234 FILLER_0_34_349
*1235 FILLER_0_34_41
*1236 FILLER_0_34_73
*1237 FILLER_0_34_79
*1238 FILLER_0_34_83
*1239 FILLER_0_35_106
*1240 FILLER_0_35_131
*1241 FILLER_0_35_139
*1242 FILLER_0_35_145
*1243 FILLER_0_35_15
*1244 FILLER_0_35_157
*1245 FILLER_0_35_165
*1246 FILLER_0_35_169
*1247 FILLER_0_35_181
*1248 FILLER_0_35_204
*1249 FILLER_0_35_220
*1250 FILLER_0_35_234
*1251 FILLER_0_35_264
*1252 FILLER_0_35_268
*1253 FILLER_0_35_27
*1254 FILLER_0_35_288
*1255 FILLER_0_35_3
*1256 FILLER_0_35_330
*1257 FILLER_0_35_337
*1258 FILLER_0_35_349
*1259 FILLER_0_35_39
*1260 FILLER_0_35_51
*1261 FILLER_0_35_55
*1262 FILLER_0_35_57
*1263 FILLER_0_35_69
*1264 FILLER_0_35_75
*1265 FILLER_0_36_138
*1266 FILLER_0_36_15
*1267 FILLER_0_36_161
*1268 FILLER_0_36_168
*1269 FILLER_0_36_207
*1270 FILLER_0_36_214
*1271 FILLER_0_36_225
*1272 FILLER_0_36_231
*1273 FILLER_0_36_27
*1274 FILLER_0_36_29
*1275 FILLER_0_36_3
*1276 FILLER_0_36_301
*1277 FILLER_0_36_307
*1278 FILLER_0_36_329
*1279 FILLER_0_36_341
*1280 FILLER_0_36_349
*1281 FILLER_0_36_41
*1282 FILLER_0_36_53
*1283 FILLER_0_36_85
*1284 FILLER_0_36_89
*1285 FILLER_0_36_98
*1286 FILLER_0_37_102
*1287 FILLER_0_37_113
*1288 FILLER_0_37_133
*1289 FILLER_0_37_15
*1290 FILLER_0_37_159
*1291 FILLER_0_37_167
*1292 FILLER_0_37_169
*1293 FILLER_0_37_175
*1294 FILLER_0_37_221
*1295 FILLER_0_37_225
*1296 FILLER_0_37_267
*1297 FILLER_0_37_27
*1298 FILLER_0_37_271
*1299 FILLER_0_37_276
*1300 FILLER_0_37_287
*1301 FILLER_0_37_3
*1302 FILLER_0_37_304
*1303 FILLER_0_37_327
*1304 FILLER_0_37_335
*1305 FILLER_0_37_337
*1306 FILLER_0_37_349
*1307 FILLER_0_37_39
*1308 FILLER_0_37_51
*1309 FILLER_0_37_55
*1310 FILLER_0_37_57
*1311 FILLER_0_37_61
*1312 FILLER_0_37_72
*1313 FILLER_0_37_94
*1314 FILLER_0_38_104
*1315 FILLER_0_38_110
*1316 FILLER_0_38_113
*1317 FILLER_0_38_120
*1318 FILLER_0_38_128
*1319 FILLER_0_38_15
*1320 FILLER_0_38_167
*1321 FILLER_0_38_169
*1322 FILLER_0_38_191
*1323 FILLER_0_38_195
*1324 FILLER_0_38_219
*1325 FILLER_0_38_225
*1326 FILLER_0_38_230
*1327 FILLER_0_38_238
*1328 FILLER_0_38_242
*1329 FILLER_0_38_248
*1330 FILLER_0_38_266
*1331 FILLER_0_38_27
*1332 FILLER_0_38_272
*1333 FILLER_0_38_278
*1334 FILLER_0_38_284
*1335 FILLER_0_38_29
*1336 FILLER_0_38_3
*1337 FILLER_0_38_302
*1338 FILLER_0_38_309
*1339 FILLER_0_38_321
*1340 FILLER_0_38_333
*1341 FILLER_0_38_337
*1342 FILLER_0_38_349
*1343 FILLER_0_38_41
*1344 FILLER_0_38_53
*1345 FILLER_0_38_57
*1346 FILLER_0_38_69
*1347 FILLER_0_38_74
*1348 FILLER_0_38_93
*1349 FILLER_0_3_105
*1350 FILLER_0_3_111
*1351 FILLER_0_3_113
*1352 FILLER_0_3_125
*1353 FILLER_0_3_137
*1354 FILLER_0_3_149
*1355 FILLER_0_3_15
*1356 FILLER_0_3_161
*1357 FILLER_0_3_167
*1358 FILLER_0_3_169
*1359 FILLER_0_3_181
*1360 FILLER_0_3_193
*1361 FILLER_0_3_205
*1362 FILLER_0_3_217
*1363 FILLER_0_3_223
*1364 FILLER_0_3_225
*1365 FILLER_0_3_237
*1366 FILLER_0_3_249
*1367 FILLER_0_3_261
*1368 FILLER_0_3_27
*1369 FILLER_0_3_273
*1370 FILLER_0_3_279
*1371 FILLER_0_3_281
*1372 FILLER_0_3_293
*1373 FILLER_0_3_3
*1374 FILLER_0_3_305
*1375 FILLER_0_3_317
*1376 FILLER_0_3_329
*1377 FILLER_0_3_335
*1378 FILLER_0_3_337
*1379 FILLER_0_3_349
*1380 FILLER_0_3_39
*1381 FILLER_0_3_51
*1382 FILLER_0_3_55
*1383 FILLER_0_3_57
*1384 FILLER_0_3_69
*1385 FILLER_0_3_81
*1386 FILLER_0_3_93
*1387 FILLER_0_4_109
*1388 FILLER_0_4_121
*1389 FILLER_0_4_133
*1390 FILLER_0_4_139
*1391 FILLER_0_4_141
*1392 FILLER_0_4_15
*1393 FILLER_0_4_153
*1394 FILLER_0_4_165
*1395 FILLER_0_4_177
*1396 FILLER_0_4_189
*1397 FILLER_0_4_195
*1398 FILLER_0_4_197
*1399 FILLER_0_4_209
*1400 FILLER_0_4_221
*1401 FILLER_0_4_233
*1402 FILLER_0_4_245
*1403 FILLER_0_4_251
*1404 FILLER_0_4_253
*1405 FILLER_0_4_265
*1406 FILLER_0_4_27
*1407 FILLER_0_4_277
*1408 FILLER_0_4_289
*1409 FILLER_0_4_29
*1410 FILLER_0_4_3
*1411 FILLER_0_4_301
*1412 FILLER_0_4_307
*1413 FILLER_0_4_309
*1414 FILLER_0_4_321
*1415 FILLER_0_4_333
*1416 FILLER_0_4_345
*1417 FILLER_0_4_41
*1418 FILLER_0_4_53
*1419 FILLER_0_4_65
*1420 FILLER_0_4_77
*1421 FILLER_0_4_83
*1422 FILLER_0_4_85
*1423 FILLER_0_4_97
*1424 FILLER_0_5_105
*1425 FILLER_0_5_111
*1426 FILLER_0_5_113
*1427 FILLER_0_5_125
*1428 FILLER_0_5_137
*1429 FILLER_0_5_149
*1430 FILLER_0_5_15
*1431 FILLER_0_5_161
*1432 FILLER_0_5_167
*1433 FILLER_0_5_169
*1434 FILLER_0_5_181
*1435 FILLER_0_5_193
*1436 FILLER_0_5_205
*1437 FILLER_0_5_217
*1438 FILLER_0_5_223
*1439 FILLER_0_5_225
*1440 FILLER_0_5_237
*1441 FILLER_0_5_249
*1442 FILLER_0_5_261
*1443 FILLER_0_5_27
*1444 FILLER_0_5_273
*1445 FILLER_0_5_279
*1446 FILLER_0_5_281
*1447 FILLER_0_5_293
*1448 FILLER_0_5_3
*1449 FILLER_0_5_305
*1450 FILLER_0_5_317
*1451 FILLER_0_5_329
*1452 FILLER_0_5_335
*1453 FILLER_0_5_337
*1454 FILLER_0_5_349
*1455 FILLER_0_5_39
*1456 FILLER_0_5_51
*1457 FILLER_0_5_55
*1458 FILLER_0_5_57
*1459 FILLER_0_5_69
*1460 FILLER_0_5_81
*1461 FILLER_0_5_93
*1462 FILLER_0_6_109
*1463 FILLER_0_6_121
*1464 FILLER_0_6_133
*1465 FILLER_0_6_139
*1466 FILLER_0_6_141
*1467 FILLER_0_6_15
*1468 FILLER_0_6_153
*1469 FILLER_0_6_165
*1470 FILLER_0_6_177
*1471 FILLER_0_6_189
*1472 FILLER_0_6_195
*1473 FILLER_0_6_197
*1474 FILLER_0_6_209
*1475 FILLER_0_6_221
*1476 FILLER_0_6_233
*1477 FILLER_0_6_245
*1478 FILLER_0_6_251
*1479 FILLER_0_6_253
*1480 FILLER_0_6_265
*1481 FILLER_0_6_27
*1482 FILLER_0_6_277
*1483 FILLER_0_6_289
*1484 FILLER_0_6_29
*1485 FILLER_0_6_3
*1486 FILLER_0_6_301
*1487 FILLER_0_6_307
*1488 FILLER_0_6_309
*1489 FILLER_0_6_321
*1490 FILLER_0_6_333
*1491 FILLER_0_6_345
*1492 FILLER_0_6_41
*1493 FILLER_0_6_53
*1494 FILLER_0_6_65
*1495 FILLER_0_6_77
*1496 FILLER_0_6_83
*1497 FILLER_0_6_85
*1498 FILLER_0_6_97
*1499 FILLER_0_7_105
*1500 FILLER_0_7_111
*1501 FILLER_0_7_113
*1502 FILLER_0_7_125
*1503 FILLER_0_7_137
*1504 FILLER_0_7_149
*1505 FILLER_0_7_15
*1506 FILLER_0_7_161
*1507 FILLER_0_7_167
*1508 FILLER_0_7_169
*1509 FILLER_0_7_181
*1510 FILLER_0_7_193
*1511 FILLER_0_7_205
*1512 FILLER_0_7_217
*1513 FILLER_0_7_223
*1514 FILLER_0_7_225
*1515 FILLER_0_7_237
*1516 FILLER_0_7_249
*1517 FILLER_0_7_261
*1518 FILLER_0_7_27
*1519 FILLER_0_7_273
*1520 FILLER_0_7_279
*1521 FILLER_0_7_281
*1522 FILLER_0_7_293