*SPEF "ieee 1481-1999"
*DESIGN "tt_um_wokwi_380005495431181313"
*DATE "11:11:11 Fri 11 11, 1111"
*VENDOR "OpenRCX"
*PROGRAM "Parallel Extraction"
*VERSION "1.0"
*DESIGN_FLOW "NAME_SCOPE LOCAL" "PIN_CAP NONE"
*DIVIDER /
*DELIMITER :
*BUS_DELIMITER []
*T_UNIT 1 NS
*C_UNIT 1 PF
*R_UNIT 1 OHM
*L_UNIT 1 HENRY

*NAME_MAP
*3 clk
*4 ena
*5 rst_n
*6 ui_in[0]
*7 ui_in[1]
*8 ui_in[2]
*9 ui_in[3]
*10 ui_in[4]
*11 ui_in[5]
*12 ui_in[6]
*13 ui_in[7]
*14 uio_in[0]
*15 uio_in[1]
*16 uio_in[2]
*17 uio_in[3]
*18 uio_in[4]
*19 uio_in[5]
*20 uio_in[6]
*21 uio_in[7]
*22 net19
*23 net20
*24 net21
*25 net22
*26 net23
*27 uio_oe[5]
*28 uio_oe[6]
*29 uio_oe[7]
*30 net24
*31 net25
*32 net26
*33 net27
*34 net28
*35 uio_out[5]
*36 uio_out[6]
*37 uio_out[7]
*38 uo_out[0]
*39 uo_out[1]
*40 uo_out[2]
*41 uo_out[3]
*42 uo_out[4]
*43 uo_out[5]
*44 uo_out[6]
*45 net29
*46 _000_
*47 _001_
*48 _002_
*49 _003_
*50 _004_
*51 _005_
*52 _006_
*53 _007_
*54 _008_
*55 _009_
*56 _010_
*57 _011_
*58 _012_
*59 _013_
*60 _014_
*61 _015_
*62 _016_
*63 _017_
*64 _018_
*65 _019_
*66 _020_
*67 _021_
*68 _022_
*69 _023_
*70 _024_
*71 _025_
*72 _026_
*73 _027_
*74 _028_
*75 _029_
*76 _030_
*77 _031_
*78 _032_
*79 _033_
*80 _034_
*81 _035_
*82 _036_
*83 _037_
*84 _038_
*85 _039_
*86 _040_
*87 _041_
*88 _047_
*89 _048_
*90 _049_
*91 _050_
*92 _051_
*93 _052_
*94 _053_
*95 _054_
*96 _055_
*97 _056_
*98 _057_
*99 _058_
*100 _059_
*101 _060_
*102 _061_
*103 _062_
*104 _063_
*105 _064_
*106 _065_
*107 _066_
*108 _067_
*109 _068_
*110 _069_
*111 _070_
*112 _071_
*113 _072_
*114 _073_
*115 _074_
*116 _075_
*117 _076_
*118 _077_
*119 _078_
*120 _079_
*121 _080_
*122 _081_
*123 _082_
*124 _083_
*125 _084_
*126 _085_
*127 _086_
*128 _087_
*129 _088_
*130 _089_
*131 _090_
*132 and1\.a
*133 and1\.out
*134 and12\.out
*135 and13\.b
*136 and13\.out
*137 and14\.a
*138 and14\.b
*139 and15\.a
*140 and15\.b
*141 and15\.out
*142 and17\.b
*143 and18\.b
*144 and19\.b
*145 and2\.a
*146 and20\.b
*147 and21\.a
*148 and21\.b
*149 and21\.out
*150 and22\.b
*151 and23\.b
*152 and24\.b
*153 and26\.a
*154 and27\.a
*155 and28\.a
*156 and28\.b
*157 and29\.b
*158 and3\.a
*159 and31\.a
*160 and44\.a
*161 and45\.a
*162 and45\.out
*163 and46\.out
*164 and47\.a
*165 and47\.out
*166 and48\.out
*167 and6\.a
*168 and6\.b
*169 and7\.a
*170 and9\.a
*171 clknet_0_and46\.out
*172 clknet_0_and48\.out
*173 clknet_0_clk
*174 clknet_1_0__leaf_and46\.out
*175 clknet_1_0__leaf_and48\.out
*176 clknet_1_0__leaf_clk
*177 clknet_1_1__leaf_and46\.out
*178 clknet_1_1__leaf_and48\.out
*179 clknet_1_1__leaf_clk
*180 flop1\.clk
*181 flop1\.d
*182 flop1\.q
*183 flop12\.d
*184 flop12\.q
*185 flop13\.d
*186 flop13\.q
*187 flop14\.d
*188 flop14\.q
*189 flop15\.d
*190 flop17\.clk
*191 flop17\.d
*192 flop17\.q
*193 flop18\.d
*194 flop18\.q
*195 flop19\.d
*196 flop19\.q
*197 flop20\.d
*198 flop20\.q
*199 flop21\.d
*200 flop21\.q
*201 flop22\.d
*202 flop23\.d
*203 flop24\.d
*204 flop26\.q
*205 flop3\.q
*206 flop32\.q
*207 flop46\.d
*208 flop46\.q
*209 flop47\.d
*210 flop5\.clk
*211 flop52\.q
*212 flop56\.q
*213 flop63\.clk
*214 flop63\.d
*215 flop7\.d
*216 flop7\.q
*217 flop8\.q
*218 net1
*219 net10
*220 net11
*221 net12
*222 net13
*223 net14
*224 net15
*225 net16
*226 net17
*227 net18
*228 net2
*229 net3
*230 net30
*231 net31
*232 net32
*233 net33
*234 net34
*235 net35
*236 net36
*237 net37
*238 net38
*239 net39
*240 net4
*241 net40
*242 net41
*243 net42
*244 net43
*245 net44
*246 net5
*247 net6
*248 net7
*249 net8
*250 net9
*251 or6\.out
*252 xor1\.out
*253 FILLER_0_0_109
*254 FILLER_0_0_113
*255 FILLER_0_0_125
*256 FILLER_0_0_137
*257 FILLER_0_0_141
*258 FILLER_0_0_15
*259 FILLER_0_0_153
*260 FILLER_0_0_165
*261 FILLER_0_0_169
*262 FILLER_0_0_181
*263 FILLER_0_0_193
*264 FILLER_0_0_197
*265 FILLER_0_0_209
*266 FILLER_0_0_221
*267 FILLER_0_0_225
*268 FILLER_0_0_237
*269 FILLER_0_0_249
*270 FILLER_0_0_253
*271 FILLER_0_0_265
*272 FILLER_0_0_27
*273 FILLER_0_0_277
*274 FILLER_0_0_281
*275 FILLER_0_0_29
*276 FILLER_0_0_293
*277 FILLER_0_0_3
*278 FILLER_0_0_305
*279 FILLER_0_0_309
*280 FILLER_0_0_321
*281 FILLER_0_0_333
*282 FILLER_0_0_337
*283 FILLER_0_0_349
*284 FILLER_0_0_41
*285 FILLER_0_0_53
*286 FILLER_0_0_57
*287 FILLER_0_0_69
*288 FILLER_0_0_81
*289 FILLER_0_0_85
*290 FILLER_0_0_97
*291 FILLER_0_10_109
*292 FILLER_0_10_121
*293 FILLER_0_10_133
*294 FILLER_0_10_139
*295 FILLER_0_10_141
*296 FILLER_0_10_15
*297 FILLER_0_10_153
*298 FILLER_0_10_165
*299 FILLER_0_10_177
*300 FILLER_0_10_189
*301 FILLER_0_10_195
*302 FILLER_0_10_197
*303 FILLER_0_10_209
*304 FILLER_0_10_221
*305 FILLER_0_10_233
*306 FILLER_0_10_245
*307 FILLER_0_10_251
*308 FILLER_0_10_253
*309 FILLER_0_10_265
*310 FILLER_0_10_27
*311 FILLER_0_10_277
*312 FILLER_0_10_289
*313 FILLER_0_10_29
*314 FILLER_0_10_3
*315 FILLER_0_10_301
*316 FILLER_0_10_307
*317 FILLER_0_10_309
*318 FILLER_0_10_321
*319 FILLER_0_10_333
*320 FILLER_0_10_345
*321 FILLER_0_10_41
*322 FILLER_0_10_53
*323 FILLER_0_10_65
*324 FILLER_0_10_77
*325 FILLER_0_10_83
*326 FILLER_0_10_85
*327 FILLER_0_10_97
*328 FILLER_0_11_105
*329 FILLER_0_11_111
*330 FILLER_0_11_113
*331 FILLER_0_11_125
*332 FILLER_0_11_137
*333 FILLER_0_11_149
*334 FILLER_0_11_15
*335 FILLER_0_11_161
*336 FILLER_0_11_167
*337 FILLER_0_11_169
*338 FILLER_0_11_181
*339 FILLER_0_11_193
*340 FILLER_0_11_205
*341 FILLER_0_11_217
*342 FILLER_0_11_223
*343 FILLER_0_11_225
*344 FILLER_0_11_237
*345 FILLER_0_11_249
*346 FILLER_0_11_261
*347 FILLER_0_11_27
*348 FILLER_0_11_273
*349 FILLER_0_11_279
*350 FILLER_0_11_281
*351 FILLER_0_11_293
*352 FILLER_0_11_3
*353 FILLER_0_11_305
*354 FILLER_0_11_317
*355 FILLER_0_11_329
*356 FILLER_0_11_335
*357 FILLER_0_11_337
*358 FILLER_0_11_349
*359 FILLER_0_11_39
*360 FILLER_0_11_51
*361 FILLER_0_11_55
*362 FILLER_0_11_57
*363 FILLER_0_11_69
*364 FILLER_0_11_81
*365 FILLER_0_11_93
*366 FILLER_0_12_109
*367 FILLER_0_12_121
*368 FILLER_0_12_133
*369 FILLER_0_12_139
*370 FILLER_0_12_141
*371 FILLER_0_12_15
*372 FILLER_0_12_153
*373 FILLER_0_12_165
*374 FILLER_0_12_177
*375 FILLER_0_12_189
*376 FILLER_0_12_195
*377 FILLER_0_12_197
*378 FILLER_0_12_209
*379 FILLER_0_12_221
*380 FILLER_0_12_233
*381 FILLER_0_12_245
*382 FILLER_0_12_251
*383 FILLER_0_12_253
*384 FILLER_0_12_265
*385 FILLER_0_12_27
*386 FILLER_0_12_277
*387 FILLER_0_12_289
*388 FILLER_0_12_29
*389 FILLER_0_12_3
*390 FILLER_0_12_301
*391 FILLER_0_12_307
*392 FILLER_0_12_309
*393 FILLER_0_12_321
*394 FILLER_0_12_333
*395 FILLER_0_12_345
*396 FILLER_0_12_41
*397 FILLER_0_12_53
*398 FILLER_0_12_65
*399 FILLER_0_12_77
*400 FILLER_0_12_83
*401 FILLER_0_12_85
*402 FILLER_0_12_97
*403 FILLER_0_13_105
*404 FILLER_0_13_111
*405 FILLER_0_13_113
*406 FILLER_0_13_125
*407 FILLER_0_13_137
*408 FILLER_0_13_149
*409 FILLER_0_13_15
*410 FILLER_0_13_161
*411 FILLER_0_13_167
*412 FILLER_0_13_169
*413 FILLER_0_13_181
*414 FILLER_0_13_193
*415 FILLER_0_13_205
*416 FILLER_0_13_217
*417 FILLER_0_13_223
*418 FILLER_0_13_225
*419 FILLER_0_13_237
*420 FILLER_0_13_249
*421 FILLER_0_13_261
*422 FILLER_0_13_27
*423 FILLER_0_13_273
*424 FILLER_0_13_279
*425 FILLER_0_13_281
*426 FILLER_0_13_293
*427 FILLER_0_13_3
*428 FILLER_0_13_305
*429 FILLER_0_13_317
*430 FILLER_0_13_329
*431 FILLER_0_13_335
*432 FILLER_0_13_337
*433 FILLER_0_13_349
*434 FILLER_0_13_39
*435 FILLER_0_13_51
*436 FILLER_0_13_55
*437 FILLER_0_13_57
*438 FILLER_0_13_69
*439 FILLER_0_13_81
*440 FILLER_0_13_93
*441 FILLER_0_14_109
*442 FILLER_0_14_121
*443 FILLER_0_14_133
*444 FILLER_0_14_139
*445 FILLER_0_14_141
*446 FILLER_0_14_15
*447 FILLER_0_14_153
*448 FILLER_0_14_165
*449 FILLER_0_14_177
*450 FILLER_0_14_189
*451 FILLER_0_14_195
*452 FILLER_0_14_197
*453 FILLER_0_14_209
*454 FILLER_0_14_221
*455 FILLER_0_14_233
*456 FILLER_0_14_245
*457 FILLER_0_14_251
*458 FILLER_0_14_253
*459 FILLER_0_14_265
*460 FILLER_0_14_27
*461 FILLER_0_14_277
*462 FILLER_0_14_289
*463 FILLER_0_14_29
*464 FILLER_0_14_3
*465 FILLER_0_14_301
*466 FILLER_0_14_307
*467 FILLER_0_14_309
*468 FILLER_0_14_321
*469 FILLER_0_14_333
*470 FILLER_0_14_345
*471 FILLER_0_14_41
*472 FILLER_0_14_53
*473 FILLER_0_14_65
*474 FILLER_0_14_77
*475 FILLER_0_14_83
*476 FILLER_0_14_85
*477 FILLER_0_14_97
*478 FILLER_0_15_105
*479 FILLER_0_15_111
*480 FILLER_0_15_113
*481 FILLER_0_15_125
*482 FILLER_0_15_137
*483 FILLER_0_15_149
*484 FILLER_0_15_15
*485 FILLER_0_15_161
*486 FILLER_0_15_167
*487 FILLER_0_15_169
*488 FILLER_0_15_181
*489 FILLER_0_15_193
*490 FILLER_0_15_205
*491 FILLER_0_15_217
*492 FILLER_0_15_223
*493 FILLER_0_15_225
*494 FILLER_0_15_237
*495 FILLER_0_15_249
*496 FILLER_0_15_261
*497 FILLER_0_15_27
*498 FILLER_0_15_273
*499 FILLER_0_15_279
*500 FILLER_0_15_281
*501 FILLER_0_15_293
*502 FILLER_0_15_3
*503 FILLER_0_15_305
*504 FILLER_0_15_317
*505 FILLER_0_15_329
*506 FILLER_0_15_335
*507 FILLER_0_15_337
*508 FILLER_0_15_349
*509 FILLER_0_15_39
*510 FILLER_0_15_51
*511 FILLER_0_15_55
*512 FILLER_0_15_57
*513 FILLER_0_15_69
*514 FILLER_0_15_81
*515 FILLER_0_15_93
*516 FILLER_0_16_109
*517 FILLER_0_16_121
*518 FILLER_0_16_133
*519 FILLER_0_16_139
*520 FILLER_0_16_141
*521 FILLER_0_16_15
*522 FILLER_0_16_153
*523 FILLER_0_16_165
*524 FILLER_0_16_177
*525 FILLER_0_16_189
*526 FILLER_0_16_195
*527 FILLER_0_16_197
*528 FILLER_0_16_209
*529 FILLER_0_16_221
*530 FILLER_0_16_233
*531 FILLER_0_16_245
*532 FILLER_0_16_251
*533 FILLER_0_16_253
*534 FILLER_0_16_265
*535 FILLER_0_16_27
*536 FILLER_0_16_277
*537 FILLER_0_16_289
*538 FILLER_0_16_29
*539 FILLER_0_16_3
*540 FILLER_0_16_301
*541 FILLER_0_16_307
*542 FILLER_0_16_309
*543 FILLER_0_16_321
*544 FILLER_0_16_333
*545 FILLER_0_16_345
*546 FILLER_0_16_41
*547 FILLER_0_16_53
*548 FILLER_0_16_65
*549 FILLER_0_16_77
*550 FILLER_0_16_83
*551 FILLER_0_16_85
*552 FILLER_0_16_97
*553 FILLER_0_17_105
*554 FILLER_0_17_111
*555 FILLER_0_17_113
*556 FILLER_0_17_125
*557 FILLER_0_17_137
*558 FILLER_0_17_149
*559 FILLER_0_17_15
*560 FILLER_0_17_161
*561 FILLER_0_17_167
*562 FILLER_0_17_169
*563 FILLER_0_17_181
*564 FILLER_0_17_193
*565 FILLER_0_17_205
*566 FILLER_0_17_217
*567 FILLER_0_17_223
*568 FILLER_0_17_225
*569 FILLER_0_17_237
*570 FILLER_0_17_249
*571 FILLER_0_17_261
*572 FILLER_0_17_27
*573 FILLER_0_17_273
*574 FILLER_0_17_279
*575 FILLER_0_17_281
*576 FILLER_0_17_293
*577 FILLER_0_17_3
*578 FILLER_0_17_305
*579 FILLER_0_17_317
*580 FILLER_0_17_329
*581 FILLER_0_17_335
*582 FILLER_0_17_337
*583 FILLER_0_17_349
*584 FILLER_0_17_39
*585 FILLER_0_17_51
*586 FILLER_0_17_55
*587 FILLER_0_17_57
*588 FILLER_0_17_69
*589 FILLER_0_17_81
*590 FILLER_0_17_93
*591 FILLER_0_18_109
*592 FILLER_0_18_121
*593 FILLER_0_18_133
*594 FILLER_0_18_139
*595 FILLER_0_18_141
*596 FILLER_0_18_15
*597 FILLER_0_18_153
*598 FILLER_0_18_165
*599 FILLER_0_18_177
*600 FILLER_0_18_189
*601 FILLER_0_18_195
*602 FILLER_0_18_197
*603 FILLER_0_18_209
*604 FILLER_0_18_221
*605 FILLER_0_18_233
*606 FILLER_0_18_245
*607 FILLER_0_18_251
*608 FILLER_0_18_253
*609 FILLER_0_18_265
*610 FILLER_0_18_27
*611 FILLER_0_18_277
*612 FILLER_0_18_289
*613 FILLER_0_18_29
*614 FILLER_0_18_3
*615 FILLER_0_18_301
*616 FILLER_0_18_307
*617 FILLER_0_18_309
*618 FILLER_0_18_321
*619 FILLER_0_18_333
*620 FILLER_0_18_345
*621 FILLER_0_18_41
*622 FILLER_0_18_53
*623 FILLER_0_18_65
*624 FILLER_0_18_77
*625 FILLER_0_18_83
*626 FILLER_0_18_85
*627 FILLER_0_18_97
*628 FILLER_0_19_105
*629 FILLER_0_19_111
*630 FILLER_0_19_113
*631 FILLER_0_19_125
*632 FILLER_0_19_137
*633 FILLER_0_19_149
*634 FILLER_0_19_15
*635 FILLER_0_19_161
*636 FILLER_0_19_167
*637 FILLER_0_19_169
*638 FILLER_0_19_181
*639 FILLER_0_19_193
*640 FILLER_0_19_205
*641 FILLER_0_19_217
*642 FILLER_0_19_223
*643 FILLER_0_19_225
*644 FILLER_0_19_237
*645 FILLER_0_19_249
*646 FILLER_0_19_261
*647 FILLER_0_19_27
*648 FILLER_0_19_273
*649 FILLER_0_19_279
*650 FILLER_0_19_281
*651 FILLER_0_19_293
*652 FILLER_0_19_3
*653 FILLER_0_19_305
*654 FILLER_0_19_317
*655 FILLER_0_19_329
*656 FILLER_0_19_335
*657 FILLER_0_19_337
*658 FILLER_0_19_349
*659 FILLER_0_19_39
*660 FILLER_0_19_51
*661 FILLER_0_19_55
*662 FILLER_0_19_57
*663 FILLER_0_19_69
*664 FILLER_0_19_81
*665 FILLER_0_19_93
*666 FILLER_0_1_105
*667 FILLER_0_1_111
*668 FILLER_0_1_113
*669 FILLER_0_1_125
*670 FILLER_0_1_137
*671 FILLER_0_1_149
*672 FILLER_0_1_15
*673 FILLER_0_1_161
*674 FILLER_0_1_167
*675 FILLER_0_1_169
*676 FILLER_0_1_181
*677 FILLER_0_1_193
*678 FILLER_0_1_205
*679 FILLER_0_1_217
*680 FILLER_0_1_223
*681 FILLER_0_1_225
*682 FILLER_0_1_237
*683 FILLER_0_1_249
*684 FILLER_0_1_261
*685 FILLER_0_1_27
*686 FILLER_0_1_273
*687 FILLER_0_1_279
*688 FILLER_0_1_281
*689 FILLER_0_1_293
*690 FILLER_0_1_3
*691 FILLER_0_1_305
*692 FILLER_0_1_317
*693 FILLER_0_1_329
*694 FILLER_0_1_335
*695 FILLER_0_1_337
*696 FILLER_0_1_349
*697 FILLER_0_1_39
*698 FILLER_0_1_51
*699 FILLER_0_1_55
*700 FILLER_0_1_57
*701 FILLER_0_1_69
*702 FILLER_0_1_81
*703 FILLER_0_1_93
*704 FILLER_0_20_109
*705 FILLER_0_20_121
*706 FILLER_0_20_133
*707 FILLER_0_20_139
*708 FILLER_0_20_141
*709 FILLER_0_20_15
*710 FILLER_0_20_153
*711 FILLER_0_20_165
*712 FILLER_0_20_177
*713 FILLER_0_20_189
*714 FILLER_0_20_195
*715 FILLER_0_20_197
*716 FILLER_0_20_209
*717 FILLER_0_20_221
*718 FILLER_0_20_233
*719 FILLER_0_20_245
*720 FILLER_0_20_251
*721 FILLER_0_20_253
*722 FILLER_0_20_265
*723 FILLER_0_20_27
*724 FILLER_0_20_277
*725 FILLER_0_20_289
*726 FILLER_0_20_29
*727 FILLER_0_20_3
*728 FILLER_0_20_301
*729 FILLER_0_20_307
*730 FILLER_0_20_309
*731 FILLER_0_20_321
*732 FILLER_0_20_333
*733 FILLER_0_20_345
*734 FILLER_0_20_41
*735 FILLER_0_20_53
*736 FILLER_0_20_65
*737 FILLER_0_20_77
*738 FILLER_0_20_83
*739 FILLER_0_20_85
*740 FILLER_0_20_97
*741 FILLER_0_21_105
*742 FILLER_0_21_111
*743 FILLER_0_21_113
*744 FILLER_0_21_125
*745 FILLER_0_21_137
*746 FILLER_0_21_149
*747 FILLER_0_21_15
*748 FILLER_0_21_161
*749 FILLER_0_21_167
*750 FILLER_0_21_169
*751 FILLER_0_21_181
*752 FILLER_0_21_193
*753 FILLER_0_21_205
*754 FILLER_0_21_217
*755 FILLER_0_21_223
*756 FILLER_0_21_225
*757 FILLER_0_21_237
*758 FILLER_0_21_249
*759 FILLER_0_21_261
*760 FILLER_0_21_27
*761 FILLER_0_21_273
*762 FILLER_0_21_279
*763 FILLER_0_21_281
*764 FILLER_0_21_293
*765 FILLER_0_21_3
*766 FILLER_0_21_305
*767 FILLER_0_21_317
*768 FILLER_0_21_329
*769 FILLER_0_21_335
*770 FILLER_0_21_337
*771 FILLER_0_21_349
*772 FILLER_0_21_39
*773 FILLER_0_21_51
*774 FILLER_0_21_55
*775 FILLER_0_21_57
*776 FILLER_0_21_69
*777 FILLER_0_21_81
*778 FILLER_0_21_93
*779 FILLER_0_22_109
*780 FILLER_0_22_121
*781 FILLER_0_22_133
*782 FILLER_0_22_139
*783 FILLER_0_22_141
*784 FILLER_0_22_15
*785 FILLER_0_22_153
*786 FILLER_0_22_165
*787 FILLER_0_22_177
*788 FILLER_0_22_189
*789 FILLER_0_22_195
*790 FILLER_0_22_197
*791 FILLER_0_22_209
*792 FILLER_0_22_221
*793 FILLER_0_22_233
*794 FILLER_0_22_245
*795 FILLER_0_22_251
*796 FILLER_0_22_253
*797 FILLER_0_22_265
*798 FILLER_0_22_27
*799 FILLER_0_22_277
*800 FILLER_0_22_289
*801 FILLER_0_22_29
*802 FILLER_0_22_3
*803 FILLER_0_22_301
*804 FILLER_0_22_307
*805 FILLER_0_22_309
*806 FILLER_0_22_321
*807 FILLER_0_22_333
*808 FILLER_0_22_345
*809 FILLER_0_22_41
*810 FILLER_0_22_53
*811 FILLER_0_22_65
*812 FILLER_0_22_77
*813 FILLER_0_22_83
*814 FILLER_0_22_85
*815 FILLER_0_22_97
*816 FILLER_0_23_105
*817 FILLER_0_23_111
*818 FILLER_0_23_113
*819 FILLER_0_23_125
*820 FILLER_0_23_137
*821 FILLER_0_23_149
*822 FILLER_0_23_15
*823 FILLER_0_23_161
*824 FILLER_0_23_167
*825 FILLER_0_23_169
*826 FILLER_0_23_181
*827 FILLER_0_23_193
*828 FILLER_0_23_205
*829 FILLER_0_23_217
*830 FILLER_0_23_223
*831 FILLER_0_23_225
*832 FILLER_0_23_237
*833 FILLER_0_23_249
*834 FILLER_0_23_261
*835 FILLER_0_23_27
*836 FILLER_0_23_273
*837 FILLER_0_23_279
*838 FILLER_0_23_281
*839 FILLER_0_23_293
*840 FILLER_0_23_3
*841 FILLER_0_23_305
*842 FILLER_0_23_317
*843 FILLER_0_23_329
*844 FILLER_0_23_335
*845 FILLER_0_23_337
*846 FILLER_0_23_349
*847 FILLER_0_23_39
*848 FILLER_0_23_51
*849 FILLER_0_23_55
*850 FILLER_0_23_57
*851 FILLER_0_23_69
*852 FILLER_0_23_81
*853 FILLER_0_23_93
*854 FILLER_0_24_109
*855 FILLER_0_24_121
*856 FILLER_0_24_133
*857 FILLER_0_24_139
*858 FILLER_0_24_141
*859 FILLER_0_24_15
*860 FILLER_0_24_153
*861 FILLER_0_24_165
*862 FILLER_0_24_177
*863 FILLER_0_24_189
*864 FILLER_0_24_195
*865 FILLER_0_24_197
*866 FILLER_0_24_209
*867 FILLER_0_24_221
*868 FILLER_0_24_233
*869 FILLER_0_24_245
*870 FILLER_0_24_251
*871 FILLER_0_24_253
*872 FILLER_0_24_265
*873 FILLER_0_24_27
*874 FILLER_0_24_277
*875 FILLER_0_24_286
*876 FILLER_0_24_29
*877 FILLER_0_24_297
*878 FILLER_0_24_3
*879 FILLER_0_24_303
*880 FILLER_0_24_307
*881 FILLER_0_24_309
*882 FILLER_0_24_321
*883 FILLER_0_24_333
*884 FILLER_0_24_345
*885 FILLER_0_24_41
*886 FILLER_0_24_53
*887 FILLER_0_24_65
*888 FILLER_0_24_77
*889 FILLER_0_24_83
*890 FILLER_0_24_85
*891 FILLER_0_24_97
*892 FILLER_0_25_105
*893 FILLER_0_25_111
*894 FILLER_0_25_113
*895 FILLER_0_25_125
*896 FILLER_0_25_137
*897 FILLER_0_25_149
*898 FILLER_0_25_15
*899 FILLER_0_25_161
*900 FILLER_0_25_167
*901 FILLER_0_25_169
*902 FILLER_0_25_181
*903 FILLER_0_25_193
*904 FILLER_0_25_205
*905 FILLER_0_25_217
*906 FILLER_0_25_223
*907 FILLER_0_25_225
*908 FILLER_0_25_237
*909 FILLER_0_25_249
*910 FILLER_0_25_257
*911 FILLER_0_25_27
*912 FILLER_0_25_278
*913 FILLER_0_25_3
*914 FILLER_0_25_324
*915 FILLER_0_25_337
*916 FILLER_0_25_349
*917 FILLER_0_25_39
*918 FILLER_0_25_51
*919 FILLER_0_25_55
*920 FILLER_0_25_57
*921 FILLER_0_25_69
*922 FILLER_0_25_81
*923 FILLER_0_25_93
*924 FILLER_0_26_109
*925 FILLER_0_26_121
*926 FILLER_0_26_133
*927 FILLER_0_26_139
*928 FILLER_0_26_141
*929 FILLER_0_26_15
*930 FILLER_0_26_153
*931 FILLER_0_26_165
*932 FILLER_0_26_177
*933 FILLER_0_26_189
*934 FILLER_0_26_195
*935 FILLER_0_26_197
*936 FILLER_0_26_209
*937 FILLER_0_26_221
*938 FILLER_0_26_233
*939 FILLER_0_26_245
*940 FILLER_0_26_27
*941 FILLER_0_26_29
*942 FILLER_0_26_293
*943 FILLER_0_26_3
*944 FILLER_0_26_301
*945 FILLER_0_26_332
*946 FILLER_0_26_344
*947 FILLER_0_26_350
*948 FILLER_0_26_41
*949 FILLER_0_26_53
*950 FILLER_0_26_65
*951 FILLER_0_26_77
*952 FILLER_0_26_83
*953 FILLER_0_26_85
*954 FILLER_0_26_97
*955 FILLER_0_27_105
*956 FILLER_0_27_111
*957 FILLER_0_27_113
*958 FILLER_0_27_125
*959 FILLER_0_27_137
*960 FILLER_0_27_149
*961 FILLER_0_27_15
*962 FILLER_0_27_161
*963 FILLER_0_27_167
*964 FILLER_0_27_169
*965 FILLER_0_27_181
*966 FILLER_0_27_193
*967 FILLER_0_27_205
*968 FILLER_0_27_217
*969 FILLER_0_27_223
*970 FILLER_0_27_225
*971 FILLER_0_27_236
*972 FILLER_0_27_240
*973 FILLER_0_27_244
*974 FILLER_0_27_256
*975 FILLER_0_27_260
*976 FILLER_0_27_264
*977 FILLER_0_27_268
*978 FILLER_0_27_27
*979 FILLER_0_27_272
*980 FILLER_0_27_293
*981 FILLER_0_27_3
*982 FILLER_0_27_305
*983 FILLER_0_27_332
*984 FILLER_0_27_337
*985 FILLER_0_27_349
*986 FILLER_0_27_39
*987 FILLER_0_27_51
*988 FILLER_0_27_55
*989 FILLER_0_27_57
*990 FILLER_0_27_69
*991 FILLER_0_27_81
*992 FILLER_0_27_93
*993 FILLER_0_28_109
*994 FILLER_0_28_121
*995 FILLER_0_28_133
*996 FILLER_0_28_139
*997 FILLER_0_28_141
*998 FILLER_0_28_15
*999 FILLER_0_28_153
*1000 FILLER_0_28_165
*1001 FILLER_0_28_177
*1002 FILLER_0_28_189
*1003 FILLER_0_28_195
*1004 FILLER_0_28_197
*1005 FILLER_0_28_206
*1006 FILLER_0_28_214
*1007 FILLER_0_28_220
*1008 FILLER_0_28_243
*1009 FILLER_0_28_251
*1010 FILLER_0_28_253
*1011 FILLER_0_28_265
*1012 FILLER_0_28_27
*1013 FILLER_0_28_277
*1014 FILLER_0_28_285
*1015 FILLER_0_28_29
*1016 FILLER_0_28_292
*1017 FILLER_0_28_3
*1018 FILLER_0_28_304
*1019 FILLER_0_28_309
*1020 FILLER_0_28_333
*1021 FILLER_0_28_345
*1022 FILLER_0_28_41
*1023 FILLER_0_28_53
*1024 FILLER_0_28_65
*1025 FILLER_0_28_77
*1026 FILLER_0_28_83
*1027 FILLER_0_28_85
*1028 FILLER_0_28_97
*1029 FILLER_0_29_105
*1030 FILLER_0_29_111
*1031 FILLER_0_29_113
*1032 FILLER_0_29_125
*1033 FILLER_0_29_137
*1034 FILLER_0_29_149
*1035 FILLER_0_29_15
*1036 FILLER_0_29_161
*1037 FILLER_0_29_167
*1038 FILLER_0_29_169
*1039 FILLER_0_29_181
*1040 FILLER_0_29_219
*1041 FILLER_0_29_225
*1042 FILLER_0_29_253
*1043 FILLER_0_29_265
*1044 FILLER_0_29_27
*1045 FILLER_0_29_277
*1046 FILLER_0_29_3
*1047 FILLER_0_29_301
*1048 FILLER_0_29_326
*1049 FILLER_0_29_334
*1050 FILLER_0_29_337
*1051 FILLER_0_29_349
*1052 FILLER_0_29_39
*1053 FILLER_0_29_51
*1054 FILLER_0_29_55
*1055 FILLER_0_29_57
*1056 FILLER_0_29_69
*1057 FILLER_0_29_81
*1058 FILLER_0_29_93
*1059 FILLER_0_2_109
*1060 FILLER_0_2_121
*1061 FILLER_0_2_133
*1062 FILLER_0_2_139
*1063 FILLER_0_2_141
*1064 FILLER_0_2_15
*1065 FILLER_0_2_153
*1066 FILLER_0_2_165
*1067 FILLER_0_2_177
*1068 FILLER_0_2_189
*1069 FILLER_0_2_195
*1070 FILLER_0_2_197
*1071 FILLER_0_2_209
*1072 FILLER_0_2_221
*1073 FILLER_0_2_233
*1074 FILLER_0_2_245
*1075 FILLER_0_2_251
*1076 FILLER_0_2_253
*1077 FILLER_0_2_265
*1078 FILLER_0_2_27
*1079 FILLER_0_2_277
*1080 FILLER_0_2_289
*1081 FILLER_0_2_29
*1082 FILLER_0_2_3
*1083 FILLER_0_2_301
*1084 FILLER_0_2_307
*1085 FILLER_0_2_309
*1086 FILLER_0_2_321
*1087 FILLER_0_2_333
*1088 FILLER_0_2_345
*1089 FILLER_0_2_41
*1090 FILLER_0_2_53
*1091 FILLER_0_2_65
*1092 FILLER_0_2_77
*1093 FILLER_0_2_83
*1094 FILLER_0_2_85
*1095 FILLER_0_2_97
*1096 FILLER_0_30_109
*1097 FILLER_0_30_121
*1098 FILLER_0_30_133
*1099 FILLER_0_30_139
*1100 FILLER_0_30_141
*1101 FILLER_0_30_15
*1102 FILLER_0_30_153
*1103 FILLER_0_30_165
*1104 FILLER_0_30_171
*1105 FILLER_0_30_192
*1106 FILLER_0_30_206
*1107 FILLER_0_30_233
*1108 FILLER_0_30_247
*1109 FILLER_0_30_251
*1110 FILLER_0_30_262
*1111 FILLER_0_30_269
*1112 FILLER_0_30_27
*1113 FILLER_0_30_29
*1114 FILLER_0_30_3
*1115 FILLER_0_30_300
*1116 FILLER_0_30_304
*1117 FILLER_0_30_309
*1118 FILLER_0_30_327
*1119 FILLER_0_30_339
*1120 FILLER_0_30_41
*1121 FILLER_0_30_53
*1122 FILLER_0_30_65
*1123 FILLER_0_30_77
*1124 FILLER_0_30_83
*1125 FILLER_0_30_85
*1126 FILLER_0_30_97
*1127 FILLER_0_31_105
*1128 FILLER_0_31_111
*1129 FILLER_0_31_113
*1130 FILLER_0_31_125
*1131 FILLER_0_31_137
*1132 FILLER_0_31_149
*1133 FILLER_0_31_15
*1134 FILLER_0_31_161
*1135 FILLER_0_31_167
*1136 FILLER_0_31_169
*1137 FILLER_0_31_173
*1138 FILLER_0_31_177
*1139 FILLER_0_31_210
*1140 FILLER_0_31_219
*1141 FILLER_0_31_223
*1142 FILLER_0_31_225
*1143 FILLER_0_31_243
*1144 FILLER_0_31_264
*1145 FILLER_0_31_27
*1146 FILLER_0_31_278
*1147 FILLER_0_31_281
*1148 FILLER_0_31_289
*1149 FILLER_0_31_3
*1150 FILLER_0_31_301
*1151 FILLER_0_31_311
*1152 FILLER_0_31_322
*1153 FILLER_0_31_334
*1154 FILLER_0_31_337
*1155 FILLER_0_31_349
*1156 FILLER_0_31_39
*1157 FILLER_0_31_51
*1158 FILLER_0_31_55
*1159 FILLER_0_31_57
*1160 FILLER_0_31_69
*1161 FILLER_0_31_81
*1162 FILLER_0_31_93
*1163 FILLER_0_32_109
*1164 FILLER_0_32_121
*1165 FILLER_0_32_133
*1166 FILLER_0_32_139
*1167 FILLER_0_32_141
*1168 FILLER_0_32_15
*1169 FILLER_0_32_153
*1170 FILLER_0_32_161
*1171 FILLER_0_32_187
*1172 FILLER_0_32_194
*1173 FILLER_0_32_203
*1174 FILLER_0_32_221
*1175 FILLER_0_32_247
*1176 FILLER_0_32_261
*1177 FILLER_0_32_267
*1178 FILLER_0_32_27
*1179 FILLER_0_32_288
*1180 FILLER_0_32_29
*1181 FILLER_0_32_3
*1182 FILLER_0_32_300
*1183 FILLER_0_32_309
*1184 FILLER_0_32_331
*1185 FILLER_0_32_343
*1186 FILLER_0_32_41
*1187 FILLER_0_32_53
*1188 FILLER_0_32_65
*1189 FILLER_0_32_77
*1190 FILLER_0_32_83
*1191 FILLER_0_32_85
*1192 FILLER_0_32_97
*1193 FILLER_0_33_110
*1194 FILLER_0_33_133
*1195 FILLER_0_33_141
*1196 FILLER_0_33_15
*1197 FILLER_0_33_162
*1198 FILLER_0_33_167
*1199 FILLER_0_33_169
*1200 FILLER_0_33_176
*1201 FILLER_0_33_188
*1202 FILLER_0_33_200
*1203 FILLER_0_33_221
*1204 FILLER_0_33_225
*1205 FILLER_0_33_258
*1206 FILLER_0_33_27
*1207 FILLER_0_33_270
*1208 FILLER_0_33_284
*1209 FILLER_0_33_296
*1210 FILLER_0_33_3
*1211 FILLER_0_33_337
*1212 FILLER_0_33_349
*1213 FILLER_0_33_39
*1214 FILLER_0_33_51
*1215 FILLER_0_33_55
*1216 FILLER_0_33_57
*1217 FILLER_0_33_69
*1218 FILLER_0_33_81
*1219 FILLER_0_34_137
*1220 FILLER_0_34_141
*1221 FILLER_0_34_15
*1222 FILLER_0_34_153
*1223 FILLER_0_34_184
*1224 FILLER_0_34_221
*1225 FILLER_0_34_251
*1226 FILLER_0_34_27
*1227 FILLER_0_34_270
*1228 FILLER_0_34_275
*1229 FILLER_0_34_279
*1230 FILLER_0_34_283
*1231 FILLER_0_34_287
*1232 FILLER_0_34_29
*1233 FILLER_0_34_3
*1234 FILLER_0_34_307
*1235 FILLER_0_34_314
*1236 FILLER_0_34_341
*1237 FILLER_0_34_349
*1238 FILLER_0_34_41
*1239 FILLER_0_34_53
*1240 FILLER_0_34_65
*1241 FILLER_0_34_77
*1242 FILLER_0_34_83
*1243 FILLER_0_34_85
*1244 FILLER_0_35_108
*1245 FILLER_0_35_113
*1246 FILLER_0_35_143
*1247 FILLER_0_35_15
*1248 FILLER_0_35_155
*1249 FILLER_0_35_167
*1250 FILLER_0_35_169
*1251 FILLER_0_35_179
*1252 FILLER_0_35_183
*1253 FILLER_0_35_225
*1254 FILLER_0_35_240
*1255 FILLER_0_35_247
*1256 FILLER_0_35_263
*1257 FILLER_0_35_268
*1258 FILLER_0_35_27
*1259 FILLER_0_35_3
*1260 FILLER_0_35_337
*1261 FILLER_0_35_349
*1262 FILLER_0_35_39
*1263 FILLER_0_35_51
*1264 FILLER_0_35_55
*1265 FILLER_0_35_57
*1266 FILLER_0_35_69
*1267 FILLER_0_35_81
*1268 FILLER_0_35_87
*1269 FILLER_0_36_108
*1270 FILLER_0_36_136
*1271 FILLER_0_36_15
*1272 FILLER_0_36_164
*1273 FILLER_0_36_172
*1274 FILLER_0_36_179
*1275 FILLER_0_36_183
*1276 FILLER_0_36_243
*1277 FILLER_0_36_27
*1278 FILLER_0_36_29
*1279 FILLER_0_36_293
*1280 FILLER_0_36_3
*1281 FILLER_0_36_305
*1282 FILLER_0_36_332
*1283 FILLER_0_36_344
*1284 FILLER_0_36_350
*1285 FILLER_0_36_41
*1286 FILLER_0_36_53
*1287 FILLER_0_36_65
*1288 FILLER_0_36_69
*1289 FILLER_0_36_74
*1290 FILLER_0_37_106
*1291 FILLER_0_37_131
*1292 FILLER_0_37_15
*1293 FILLER_0_37_165
*1294 FILLER_0_37_169
*1295 FILLER_0_37_175
*1296 FILLER_0_37_206
*1297 FILLER_0_37_218
*1298 FILLER_0_37_265
*1299 FILLER_0_37_27
*1300 FILLER_0_37_273
*1301 FILLER_0_37_3
*1302 FILLER_0_37_303
*1303 FILLER_0_37_308
*1304 FILLER_0_37_316
*1305 FILLER_0_37_320
*1306 FILLER_0_37_332
*1307 FILLER_0_37_337
*1308 FILLER_0_37_349
*1309 FILLER_0_37_39
*1310 FILLER_0_37_51
*1311 FILLER_0_37_55
*1312 FILLER_0_37_57
*1313 FILLER_0_37_61
*1314 FILLER_0_37_72
*1315 FILLER_0_37_94
*1316 FILLER_0_38_110
*1317 FILLER_0_38_113
*1318 FILLER_0_38_129
*1319 FILLER_0_38_15
*1320 FILLER_0_38_167
*1321 FILLER_0_38_172
*1322 FILLER_0_38_184
*1323 FILLER_0_38_188
*1324 FILLER_0_38_195
*1325 FILLER_0_38_201
*1326 FILLER_0_38_212
*1327 FILLER_0_38_251
*1328 FILLER_0_38_266
*1329 FILLER_0_38_27
*1330 FILLER_0_38_272
*1331 FILLER_0_38_278
*1332 FILLER_0_38_284
*1333 FILLER_0_38_29
*1334 FILLER_0_38_298
*1335 FILLER_0_38_3
*1336 FILLER_0_38_302
*1337 FILLER_0_38_309
*1338 FILLER_0_38_321
*1339 FILLER_0_38_333
*1340 FILLER_0_38_337
*1341 FILLER_0_38_349
*1342 FILLER_0_38_41
*1343 FILLER_0_38_53
*1344 FILLER_0_38_57
*1345 FILLER_0_38_69
*1346 FILLER_0_38_78
*1347 FILLER_0_38_83
*1348 FILLER_0_38_99
*1349 FILLER_0_3_105
*1350 FILLER_0_3_111
*1351 FILLER_0_3_113
*1352 FILLER_0_3_125
*1353 FILLER_0_3_137
*1354 FILLER_0_3_149
*1355 FILLER_0_3_15
*1356 FILLER_0_3_161
*1357 FILLER_0_3_167
*1358 FILLER_0_3_169
*1359 FILLER_0_3_181
*1360 FILLER_0_3_193
*1361 FILLER_0_3_205
*1362 FILLER_0_3_217
*1363 FILLER_0_3_223
*1364 FILLER_0_3_225
*1365 FILLER_0_3_237
*1366 FILLER_0_3_249
*1367 FILLER_0_3_261
*1368 FILLER_0_3_27
*1369 FILLER_0_3_273
*1370 FILLER_0_3_279
*1371 FILLER_0_3_281
*1372 FILLER_0_3_293
*1373 FILLER_0_3_3
*1374 FILLER_0_3_305
*1375 FILLER_0_3_317
*1376 FILLER_0_3_329
*1377 FILLER_0_3_335
*1378 FILLER_0_3_337
*1379 FILLER_0_3_349
*1380 FILLER_0_3_39
*1381 FILLER_0_3_51
*1382 FILLER_0_3_55
*1383 FILLER_0_3_57
*1384 FILLER_0_3_69
*1385 FILLER_0_3_81
*1386 FILLER_0_3_93
*1387 FILLER_0_4_109
*1388 FILLER_0_4_121
*1389 FILLER_0_4_133
*1390 FILLER_0_4_139
*1391 FILLER_0_4_141
*1392 FILLER_0_4_15
*1393 FILLER_0_4_153
*1394 FILLER_0_4_165
*1395 FILLER_0_4_177
*1396 FILLER_0_4_189
*1397 FILLER_0_4_195
*1398 FILLER_0_4_197
*1399 FILLER_0_4_209
*1400 FILLER_0_4_221
*1401 FILLER_0_4_233
*1402 FILLER_0_4_245
*1403 FILLER_0_4_251
*1404 FILLER_0_4_253
*1405 FILLER_0_4_265
*1406 FILLER_0_4_27
*1407 FILLER_0_4_277
*1408 FILLER_0_4_289
*1409 FILLER_0_4_29
*1410 FILLER_0_4_3
*1411 FILLER_0_4_301
*1412 FILLER_0_4_307
*1413 FILLER_0_4_309
*1414 FILLER_0_4_321
*1415 FILLER_0_4_333
*1416 FILLER_0_4_345
*1417 FILLER_0_4_41
*1418 FILLER_0_4_53
*1419 FILLER_0_4_65
*1420 FILLER_0_4_77
*1421 FILLER_0_4_83
*1422 FILLER_0_4_85
*1423 FILLER_0_4_97
*1424 FILLER_0_5_105
*1425 FILLER_0_5_111
*1426 FILLER_0_5_113
*1427 FILLER_0_5_125
*1428 FILLER_0_5_137
*1429 FILLER_0_5_149
*1430 FILLER_0_5_15
*1431 FILLER_0_5_161
*1432 FILLER_0_5_167
*1433 FILLER_0_5_169
*1434 FILLER_0_5_181
*1435 FILLER_0_5_193
*1436 FILLER_0_5_205
*1437 FILLER_0_5_217
*1438 FILLER_0_5_223
*1439 FILLER_0_5_225
*1440 FILLER_0_5_237
*1441 FILLER_0_5_249
*1442 FILLER_0_5_261
*1443 FILLER_0_5_27
*1444 FILLER_0_5_273
*1445 FILLER_0_5_279
*1446 FILLER_0_5_281
*1447 FILLER_0_5_293
*1448 FILLER_0_5_3
*1449 FILLER_0_5_305
*1450 FILLER_0_5_317
*1451 FILLER_0_5_329
*1452 FILLER_0_5_335
*1453 FILLER_0_5_337
*1454 FILLER_0_5_349
*1455 FILLER_0_5_39
*1456 FILLER_0_5_51
*1457 FILLER_0_5_55
*1458 FILLER_0_5_57
*1459 FILLER_0_5_69
*1460 FILLER_0_5_81
*1461 FILLER_0_5_93
*1462 FILLER_0_6_109
*1463 FILLER_0_6_121
*1464 FILLER_0_6_133
*1465 FILLER_0_6_139
*1466 FILLER_0_6_141
*1467 FILLER_0_6_15
*1468 FILLER_0_6_153
*1469 FILLER_0_6_165
*1470 FILLER_0_6_177
*1471 FILLER_0_6_189
*1472 FILLER_0_6_195
*1473 FILLER_0_6_197
*1474 FILLER_0_6_209
*1475 FILLER_0_6_221
*1476 FILLER_0_6_233
*1477 FILLER_0_6_245
*1478 FILLER_0_6_251
*1479 FILLER_0_6_253
*1480 FILLER_0_6_265
*1481 FILLER_0_6_27
*1482 FILLER_0_6_277
*1483 FILLER_0_6_289
*1484 FILLER_0_6_29
*1485 FILLER_0_6_3
*1486 FILLER_0_6_301
*1487 FILLER_0_6_307
*1488 FILLER_0_6_309
*1489 FILLER_0_6_321
*1490 FILLER_0_6_333
*1491 FILLER_0_6_345
*1492 FILLER_0_6_41
*1493 FILLER_0_6_53
*1494 FILLER_0_6_65
*1495 FILLER_0_6_77
*1496 FILLER_0_6_83
*1497 FILLER_0_6_85
*1498 FILLER_0_6_97
*1499 FILLER_0_7_105
*1500 FILLER_0_7_111
*1501 FILLER_0_7_113
*1502 FILLER_0_7_125
*1503 FILLER_0_7_137
*1504 FILLER_0_7_149
*1505 FILLER_0_7_15
*1506 FILLER_0_7_161
*1507 FILLER_0_7_167
*1508 FILLER_0_7_169
*1509 FILLER_0_7_181
*1510 FILLER_0_7_193
*1511 FILLER_0_7_205
*1512 FILLER_0_7_217
*1513 FILLER_0_7_223
*1514 FILLER_0_7_225
*1515 FILLER_0_7_237
*1516 FILLER_0_7_249
*1517 FILLER_0_7_261
*1518 FILLER_0_7_27
*1519 FILLER_0_7_273
*1520 FILLER_0_7_279
*1521 FILLER_0_7_281
*1522 FILLER_0_7_293