*SPEF "ieee 1481-1999"
*DESIGN "tt_um_ttl74hc595_v2"
*DATE "11:11:11 Fri 11 11, 1111"
*VENDOR "OpenRCX"
*PROGRAM "Parallel Extraction"
*VERSION "1.0"
*DESIGN_FLOW "NAME_SCOPE LOCAL" "PIN_CAP NONE"
*DIVIDER /
*DELIMITER :
*BUS_DELIMITER []
*T_UNIT 1 NS
*C_UNIT 1 PF
*R_UNIT 1 OHM
*L_UNIT 1 HENRY

*NAME_MAP
*3 clk
*4 ena
*5 rst_n
*6 ui_in[0]
*7 ui_in[1]
*8 ui_in[2]
*9 ui_in[3]
*10 ui_in[4]
*11 ui_in[5]
*12 ui_in[6]
*13 ui_in[7]
*14 uio_in[0]
*15 uio_in[1]
*16 uio_in[2]
*17 uio_in[3]
*18 uio_in[4]
*19 uio_in[5]
*20 uio_in[6]
*21 uio_in[7]
*22 net16
*23 net17
*24 net18
*25 net19
*26 net20
*27 net21
*28 net22
*29 net23
*30 net8
*31 net9
*32 net10
*33 net11
*34 net12
*35 net13
*36 net14
*37 net15
*38 uo_out[0]
*39 uo_out[1]
*40 uo_out[2]
*41 uo_out[3]
*42 uo_out[4]
*43 uo_out[5]
*44 uo_out[6]
*45 uo_out[7]
*46 _000_
*47 _001_
*48 _002_
*49 _003_
*50 _004_
*51 _005_
*52 _006_
*53 _007_
*54 _008_
*55 _009_
*56 _010_
*57 _011_
*58 _012_
*59 _013_
*60 _014_
*61 _015_
*62 _016_
*63 _017_
*64 _018_
*65 _019_
*66 _020_
*67 _021_
*68 _022_
*69 _023_
*70 _024_
*71 _025_
*72 _026_
*73 _027_
*74 _028_
*75 _029_
*76 _030_
*77 _031_
*78 net1
*79 net2
*80 net3
*81 net4
*82 net5
*83 net6
*84 net7
*85 shift_reg\[0\]
*86 shift_reg\[1\]
*87 shift_reg\[2\]
*88 shift_reg\[3\]
*89 shift_reg\[4\]
*90 shift_reg\[5\]
*91 shift_reg\[6\]
*92 shift_reg\[7\]
*93 storage_reg\[0\]
*94 storage_reg\[1\]
*95 storage_reg\[2\]
*96 storage_reg\[3\]
*97 storage_reg\[4\]
*98 storage_reg\[5\]
*99 storage_reg\[6\]
*100 storage_reg\[7\]
*101 FILLER_0_0_109
*102 FILLER_0_0_113
*103 FILLER_0_0_125
*104 FILLER_0_0_137
*105 FILLER_0_0_141
*106 FILLER_0_0_15
*107 FILLER_0_0_153
*108 FILLER_0_0_165
*109 FILLER_0_0_169
*110 FILLER_0_0_181
*111 FILLER_0_0_193
*112 FILLER_0_0_197
*113 FILLER_0_0_209
*114 FILLER_0_0_221
*115 FILLER_0_0_225
*116 FILLER_0_0_237
*117 FILLER_0_0_249
*118 FILLER_0_0_253
*119 FILLER_0_0_265
*120 FILLER_0_0_27
*121 FILLER_0_0_277
*122 FILLER_0_0_281
*123 FILLER_0_0_29
*124 FILLER_0_0_293
*125 FILLER_0_0_3
*126 FILLER_0_0_305
*127 FILLER_0_0_309
*128 FILLER_0_0_321
*129 FILLER_0_0_333
*130 FILLER_0_0_337
*131 FILLER_0_0_349
*132 FILLER_0_0_41
*133 FILLER_0_0_53
*134 FILLER_0_0_57
*135 FILLER_0_0_69
*136 FILLER_0_0_81
*137 FILLER_0_0_85
*138 FILLER_0_0_97
*139 FILLER_0_10_109
*140 FILLER_0_10_121
*141 FILLER_0_10_133
*142 FILLER_0_10_139
*143 FILLER_0_10_141
*144 FILLER_0_10_15
*145 FILLER_0_10_153
*146 FILLER_0_10_165
*147 FILLER_0_10_177
*148 FILLER_0_10_189
*149 FILLER_0_10_195
*150 FILLER_0_10_197
*151 FILLER_0_10_209
*152 FILLER_0_10_221
*153 FILLER_0_10_233
*154 FILLER_0_10_245
*155 FILLER_0_10_251
*156 FILLER_0_10_253
*157 FILLER_0_10_265
*158 FILLER_0_10_27
*159 FILLER_0_10_277
*160 FILLER_0_10_289
*161 FILLER_0_10_29
*162 FILLER_0_10_3
*163 FILLER_0_10_301
*164 FILLER_0_10_307
*165 FILLER_0_10_309
*166 FILLER_0_10_321
*167 FILLER_0_10_333
*168 FILLER_0_10_345
*169 FILLER_0_10_41
*170 FILLER_0_10_53
*171 FILLER_0_10_65
*172 FILLER_0_10_77
*173 FILLER_0_10_83
*174 FILLER_0_10_85
*175 FILLER_0_10_97
*176 FILLER_0_11_105
*177 FILLER_0_11_111
*178 FILLER_0_11_113
*179 FILLER_0_11_125
*180 FILLER_0_11_137
*181 FILLER_0_11_149
*182 FILLER_0_11_15
*183 FILLER_0_11_161
*184 FILLER_0_11_167
*185 FILLER_0_11_169
*186 FILLER_0_11_181
*187 FILLER_0_11_193
*188 FILLER_0_11_205
*189 FILLER_0_11_217
*190 FILLER_0_11_223
*191 FILLER_0_11_225
*192 FILLER_0_11_237
*193 FILLER_0_11_249
*194 FILLER_0_11_261
*195 FILLER_0_11_27
*196 FILLER_0_11_273
*197 FILLER_0_11_279
*198 FILLER_0_11_281
*199 FILLER_0_11_293
*200 FILLER_0_11_3
*201 FILLER_0_11_305
*202 FILLER_0_11_317
*203 FILLER_0_11_329
*204 FILLER_0_11_335
*205 FILLER_0_11_337
*206 FILLER_0_11_349
*207 FILLER_0_11_39
*208 FILLER_0_11_51
*209 FILLER_0_11_55
*210 FILLER_0_11_57
*211 FILLER_0_11_69
*212 FILLER_0_11_81
*213 FILLER_0_11_93
*214 FILLER_0_12_109
*215 FILLER_0_12_121
*216 FILLER_0_12_133
*217 FILLER_0_12_139
*218 FILLER_0_12_141
*219 FILLER_0_12_15
*220 FILLER_0_12_153
*221 FILLER_0_12_165
*222 FILLER_0_12_177
*223 FILLER_0_12_189
*224 FILLER_0_12_195
*225 FILLER_0_12_197
*226 FILLER_0_12_209
*227 FILLER_0_12_221
*228 FILLER_0_12_233
*229 FILLER_0_12_245
*230 FILLER_0_12_251
*231 FILLER_0_12_253
*232 FILLER_0_12_265
*233 FILLER_0_12_27
*234 FILLER_0_12_277
*235 FILLER_0_12_289
*236 FILLER_0_12_29
*237 FILLER_0_12_3
*238 FILLER_0_12_301
*239 FILLER_0_12_307
*240 FILLER_0_12_309
*241 FILLER_0_12_321
*242 FILLER_0_12_333
*243 FILLER_0_12_345
*244 FILLER_0_12_41
*245 FILLER_0_12_53
*246 FILLER_0_12_65
*247 FILLER_0_12_77
*248 FILLER_0_12_83
*249 FILLER_0_12_85
*250 FILLER_0_12_97
*251 FILLER_0_13_105
*252 FILLER_0_13_111
*253 FILLER_0_13_113
*254 FILLER_0_13_125
*255 FILLER_0_13_137
*256 FILLER_0_13_149
*257 FILLER_0_13_15
*258 FILLER_0_13_161
*259 FILLER_0_13_167
*260 FILLER_0_13_169
*261 FILLER_0_13_181
*262 FILLER_0_13_193
*263 FILLER_0_13_205
*264 FILLER_0_13_217
*265 FILLER_0_13_223
*266 FILLER_0_13_225
*267 FILLER_0_13_237
*268 FILLER_0_13_249
*269 FILLER_0_13_261
*270 FILLER_0_13_27
*271 FILLER_0_13_273
*272 FILLER_0_13_279
*273 FILLER_0_13_281
*274 FILLER_0_13_293
*275 FILLER_0_13_3
*276 FILLER_0_13_305
*277 FILLER_0_13_317
*278 FILLER_0_13_329
*279 FILLER_0_13_335
*280 FILLER_0_13_337
*281 FILLER_0_13_349
*282 FILLER_0_13_39
*283 FILLER_0_13_51
*284 FILLER_0_13_55
*285 FILLER_0_13_57
*286 FILLER_0_13_69
*287 FILLER_0_13_81
*288 FILLER_0_13_93
*289 FILLER_0_14_109
*290 FILLER_0_14_121
*291 FILLER_0_14_133
*292 FILLER_0_14_139
*293 FILLER_0_14_141
*294 FILLER_0_14_15
*295 FILLER_0_14_153
*296 FILLER_0_14_165
*297 FILLER_0_14_177
*298 FILLER_0_14_189
*299 FILLER_0_14_195
*300 FILLER_0_14_197
*301 FILLER_0_14_209
*302 FILLER_0_14_221
*303 FILLER_0_14_233
*304 FILLER_0_14_245
*305 FILLER_0_14_251
*306 FILLER_0_14_253
*307 FILLER_0_14_265
*308 FILLER_0_14_27
*309 FILLER_0_14_277
*310 FILLER_0_14_289
*311 FILLER_0_14_29
*312 FILLER_0_14_3
*313 FILLER_0_14_301
*314 FILLER_0_14_307
*315 FILLER_0_14_309
*316 FILLER_0_14_321
*317 FILLER_0_14_333
*318 FILLER_0_14_345
*319 FILLER_0_14_41
*320 FILLER_0_14_53
*321 FILLER_0_14_65
*322 FILLER_0_14_77
*323 FILLER_0_14_83
*324 FILLER_0_14_85
*325 FILLER_0_14_97
*326 FILLER_0_15_105
*327 FILLER_0_15_111
*328 FILLER_0_15_113
*329 FILLER_0_15_125
*330 FILLER_0_15_137
*331 FILLER_0_15_149
*332 FILLER_0_15_15
*333 FILLER_0_15_161
*334 FILLER_0_15_167
*335 FILLER_0_15_169
*336 FILLER_0_15_181
*337 FILLER_0_15_193
*338 FILLER_0_15_205
*339 FILLER_0_15_217
*340 FILLER_0_15_223
*341 FILLER_0_15_225
*342 FILLER_0_15_237
*343 FILLER_0_15_249
*344 FILLER_0_15_261
*345 FILLER_0_15_27
*346 FILLER_0_15_273
*347 FILLER_0_15_279
*348 FILLER_0_15_281
*349 FILLER_0_15_293
*350 FILLER_0_15_3
*351 FILLER_0_15_305
*352 FILLER_0_15_317
*353 FILLER_0_15_329
*354 FILLER_0_15_335
*355 FILLER_0_15_337
*356 FILLER_0_15_349
*357 FILLER_0_15_39
*358 FILLER_0_15_51
*359 FILLER_0_15_55
*360 FILLER_0_15_57
*361 FILLER_0_15_69
*362 FILLER_0_15_81
*363 FILLER_0_15_93
*364 FILLER_0_16_109
*365 FILLER_0_16_121
*366 FILLER_0_16_133
*367 FILLER_0_16_139
*368 FILLER_0_16_141
*369 FILLER_0_16_15
*370 FILLER_0_16_153
*371 FILLER_0_16_165
*372 FILLER_0_16_177
*373 FILLER_0_16_189
*374 FILLER_0_16_195
*375 FILLER_0_16_197
*376 FILLER_0_16_209
*377 FILLER_0_16_221
*378 FILLER_0_16_233
*379 FILLER_0_16_245
*380 FILLER_0_16_251
*381 FILLER_0_16_253
*382 FILLER_0_16_265
*383 FILLER_0_16_27
*384 FILLER_0_16_277
*385 FILLER_0_16_289
*386 FILLER_0_16_29
*387 FILLER_0_16_3
*388 FILLER_0_16_301
*389 FILLER_0_16_307
*390 FILLER_0_16_309
*391 FILLER_0_16_321
*392 FILLER_0_16_333
*393 FILLER_0_16_345
*394 FILLER_0_16_41
*395 FILLER_0_16_53
*396 FILLER_0_16_65
*397 FILLER_0_16_77
*398 FILLER_0_16_83
*399 FILLER_0_16_85
*400 FILLER_0_16_97
*401 FILLER_0_17_105
*402 FILLER_0_17_111
*403 FILLER_0_17_113
*404 FILLER_0_17_125
*405 FILLER_0_17_137
*406 FILLER_0_17_149
*407 FILLER_0_17_15
*408 FILLER_0_17_161
*409 FILLER_0_17_167
*410 FILLER_0_17_169
*411 FILLER_0_17_181
*412 FILLER_0_17_193
*413 FILLER_0_17_205
*414 FILLER_0_17_217
*415 FILLER_0_17_223
*416 FILLER_0_17_225
*417 FILLER_0_17_237
*418 FILLER_0_17_249
*419 FILLER_0_17_261
*420 FILLER_0_17_27
*421 FILLER_0_17_273
*422 FILLER_0_17_279
*423 FILLER_0_17_281
*424 FILLER_0_17_293
*425 FILLER_0_17_3
*426 FILLER_0_17_305
*427 FILLER_0_17_317
*428 FILLER_0_17_329
*429 FILLER_0_17_335
*430 FILLER_0_17_337
*431 FILLER_0_17_349
*432 FILLER_0_17_39
*433 FILLER_0_17_51
*434 FILLER_0_17_55
*435 FILLER_0_17_57
*436 FILLER_0_17_69
*437 FILLER_0_17_81
*438 FILLER_0_17_93
*439 FILLER_0_18_109
*440 FILLER_0_18_121
*441 FILLER_0_18_133
*442 FILLER_0_18_139
*443 FILLER_0_18_141
*444 FILLER_0_18_15
*445 FILLER_0_18_153
*446 FILLER_0_18_165
*447 FILLER_0_18_177
*448 FILLER_0_18_189
*449 FILLER_0_18_195
*450 FILLER_0_18_197
*451 FILLER_0_18_209
*452 FILLER_0_18_221
*453 FILLER_0_18_233
*454 FILLER_0_18_245
*455 FILLER_0_18_251
*456 FILLER_0_18_253
*457 FILLER_0_18_265
*458 FILLER_0_18_27
*459 FILLER_0_18_277
*460 FILLER_0_18_289
*461 FILLER_0_18_29
*462 FILLER_0_18_3
*463 FILLER_0_18_301
*464 FILLER_0_18_307
*465 FILLER_0_18_309
*466 FILLER_0_18_321
*467 FILLER_0_18_333
*468 FILLER_0_18_345
*469 FILLER_0_18_41
*470 FILLER_0_18_53
*471 FILLER_0_18_65
*472 FILLER_0_18_77
*473 FILLER_0_18_83
*474 FILLER_0_18_85
*475 FILLER_0_18_97
*476 FILLER_0_19_105
*477 FILLER_0_19_111
*478 FILLER_0_19_113
*479 FILLER_0_19_125
*480 FILLER_0_19_137
*481 FILLER_0_19_149
*482 FILLER_0_19_15
*483 FILLER_0_19_161
*484 FILLER_0_19_167
*485 FILLER_0_19_169
*486 FILLER_0_19_181
*487 FILLER_0_19_193
*488 FILLER_0_19_205
*489 FILLER_0_19_217
*490 FILLER_0_19_223
*491 FILLER_0_19_225
*492 FILLER_0_19_237
*493 FILLER_0_19_249
*494 FILLER_0_19_261
*495 FILLER_0_19_27
*496 FILLER_0_19_273
*497 FILLER_0_19_279
*498 FILLER_0_19_281
*499 FILLER_0_19_293
*500 FILLER_0_19_3
*501 FILLER_0_19_305
*502 FILLER_0_19_317
*503 FILLER_0_19_329
*504 FILLER_0_19_335
*505 FILLER_0_19_337
*506 FILLER_0_19_349
*507 FILLER_0_19_39
*508 FILLER_0_19_51
*509 FILLER_0_19_55
*510 FILLER_0_19_57
*511 FILLER_0_19_69
*512 FILLER_0_19_81
*513 FILLER_0_19_93
*514 FILLER_0_1_105
*515 FILLER_0_1_111
*516 FILLER_0_1_113
*517 FILLER_0_1_125
*518 FILLER_0_1_137
*519 FILLER_0_1_149
*520 FILLER_0_1_15
*521 FILLER_0_1_161
*522 FILLER_0_1_167
*523 FILLER_0_1_169
*524 FILLER_0_1_181
*525 FILLER_0_1_193
*526 FILLER_0_1_205
*527 FILLER_0_1_217
*528 FILLER_0_1_223
*529 FILLER_0_1_225
*530 FILLER_0_1_237
*531 FILLER_0_1_249
*532 FILLER_0_1_261
*533 FILLER_0_1_27
*534 FILLER_0_1_273
*535 FILLER_0_1_279
*536 FILLER_0_1_281
*537 FILLER_0_1_293
*538 FILLER_0_1_3
*539 FILLER_0_1_305
*540 FILLER_0_1_317
*541 FILLER_0_1_329
*542 FILLER_0_1_335
*543 FILLER_0_1_337
*544 FILLER_0_1_349
*545 FILLER_0_1_39
*546 FILLER_0_1_51
*547 FILLER_0_1_55
*548 FILLER_0_1_57
*549 FILLER_0_1_69
*550 FILLER_0_1_81
*551 FILLER_0_1_93
*552 FILLER_0_20_109
*553 FILLER_0_20_121
*554 FILLER_0_20_133
*555 FILLER_0_20_139
*556 FILLER_0_20_141
*557 FILLER_0_20_15
*558 FILLER_0_20_153
*559 FILLER_0_20_165
*560 FILLER_0_20_177
*561 FILLER_0_20_189
*562 FILLER_0_20_195
*563 FILLER_0_20_197
*564 FILLER_0_20_209
*565 FILLER_0_20_221
*566 FILLER_0_20_233
*567 FILLER_0_20_245
*568 FILLER_0_20_251
*569 FILLER_0_20_253
*570 FILLER_0_20_265
*571 FILLER_0_20_27
*572 FILLER_0_20_277
*573 FILLER_0_20_289
*574 FILLER_0_20_29
*575 FILLER_0_20_3
*576 FILLER_0_20_301
*577 FILLER_0_20_307
*578 FILLER_0_20_309
*579 FILLER_0_20_321
*580 FILLER_0_20_333
*581 FILLER_0_20_345
*582 FILLER_0_20_41
*583 FILLER_0_20_53
*584 FILLER_0_20_65
*585 FILLER_0_20_77
*586 FILLER_0_20_83
*587 FILLER_0_20_85
*588 FILLER_0_20_97
*589 FILLER_0_21_105
*590 FILLER_0_21_111
*591 FILLER_0_21_113
*592 FILLER_0_21_125
*593 FILLER_0_21_137
*594 FILLER_0_21_149
*595 FILLER_0_21_15
*596 FILLER_0_21_161
*597 FILLER_0_21_167
*598 FILLER_0_21_169
*599 FILLER_0_21_181
*600 FILLER_0_21_193
*601 FILLER_0_21_205
*602 FILLER_0_21_217
*603 FILLER_0_21_223
*604 FILLER_0_21_225
*605 FILLER_0_21_237
*606 FILLER_0_21_249
*607 FILLER_0_21_261
*608 FILLER_0_21_27
*609 FILLER_0_21_273
*610 FILLER_0_21_279
*611 FILLER_0_21_281
*612 FILLER_0_21_293
*613 FILLER_0_21_3
*614 FILLER_0_21_305
*615 FILLER_0_21_317
*616 FILLER_0_21_329
*617 FILLER_0_21_335
*618 FILLER_0_21_337
*619 FILLER_0_21_349
*620 FILLER_0_21_39
*621 FILLER_0_21_51
*622 FILLER_0_21_55
*623 FILLER_0_21_57
*624 FILLER_0_21_69
*625 FILLER_0_21_81
*626 FILLER_0_21_93
*627 FILLER_0_22_109
*628 FILLER_0_22_121
*629 FILLER_0_22_133
*630 FILLER_0_22_139
*631 FILLER_0_22_141
*632 FILLER_0_22_15
*633 FILLER_0_22_153
*634 FILLER_0_22_165
*635 FILLER_0_22_177
*636 FILLER_0_22_189
*637 FILLER_0_22_195
*638 FILLER_0_22_197
*639 FILLER_0_22_209
*640 FILLER_0_22_221
*641 FILLER_0_22_233
*642 FILLER_0_22_245
*643 FILLER_0_22_251
*644 FILLER_0_22_253
*645 FILLER_0_22_265
*646 FILLER_0_22_27
*647 FILLER_0_22_277
*648 FILLER_0_22_289
*649 FILLER_0_22_29
*650 FILLER_0_22_3
*651 FILLER_0_22_301
*652 FILLER_0_22_307
*653 FILLER_0_22_309
*654 FILLER_0_22_321
*655 FILLER_0_22_333
*656 FILLER_0_22_345
*657 FILLER_0_22_41
*658 FILLER_0_22_53
*659 FILLER_0_22_65
*660 FILLER_0_22_77
*661 FILLER_0_22_83
*662 FILLER_0_22_85
*663 FILLER_0_22_97
*664 FILLER_0_23_105
*665 FILLER_0_23_111
*666 FILLER_0_23_113
*667 FILLER_0_23_125
*668 FILLER_0_23_137
*669 FILLER_0_23_149
*670 FILLER_0_23_15
*671 FILLER_0_23_161
*672 FILLER_0_23_167
*673 FILLER_0_23_169
*674 FILLER_0_23_181
*675 FILLER_0_23_193
*676 FILLER_0_23_205
*677 FILLER_0_23_217
*678 FILLER_0_23_223
*679 FILLER_0_23_225
*680 FILLER_0_23_237
*681 FILLER_0_23_249
*682 FILLER_0_23_261
*683 FILLER_0_23_27
*684 FILLER_0_23_273
*685 FILLER_0_23_279
*686 FILLER_0_23_281
*687 FILLER_0_23_293
*688 FILLER_0_23_3
*689 FILLER_0_23_305
*690 FILLER_0_23_317
*691 FILLER_0_23_329
*692 FILLER_0_23_335
*693 FILLER_0_23_337
*694 FILLER_0_23_349
*695 FILLER_0_23_39
*696 FILLER_0_23_51
*697 FILLER_0_23_55
*698 FILLER_0_23_57
*699 FILLER_0_23_69
*700 FILLER_0_23_81
*701 FILLER_0_23_93
*702 FILLER_0_24_109
*703 FILLER_0_24_121
*704 FILLER_0_24_133
*705 FILLER_0_24_139
*706 FILLER_0_24_141
*707 FILLER_0_24_15
*708 FILLER_0_24_153
*709 FILLER_0_24_165
*710 FILLER_0_24_177
*711 FILLER_0_24_189
*712 FILLER_0_24_195
*713 FILLER_0_24_197
*714 FILLER_0_24_209
*715 FILLER_0_24_221
*716 FILLER_0_24_233
*717 FILLER_0_24_245
*718 FILLER_0_24_251
*719 FILLER_0_24_253
*720 FILLER_0_24_265
*721 FILLER_0_24_27
*722 FILLER_0_24_277
*723 FILLER_0_24_289
*724 FILLER_0_24_29
*725 FILLER_0_24_3
*726 FILLER_0_24_301
*727 FILLER_0_24_307
*728 FILLER_0_24_309
*729 FILLER_0_24_321
*730 FILLER_0_24_333
*731 FILLER_0_24_345
*732 FILLER_0_24_41
*733 FILLER_0_24_53
*734 FILLER_0_24_65
*735 FILLER_0_24_77
*736 FILLER_0_24_83
*737 FILLER_0_24_85
*738 FILLER_0_24_97
*739 FILLER_0_25_105
*740 FILLER_0_25_111
*741 FILLER_0_25_113
*742 FILLER_0_25_125
*743 FILLER_0_25_137
*744 FILLER_0_25_149
*745 FILLER_0_25_15
*746 FILLER_0_25_161
*747 FILLER_0_25_167
*748 FILLER_0_25_169
*749 FILLER_0_25_181
*750 FILLER_0_25_193
*751 FILLER_0_25_205
*752 FILLER_0_25_217
*753 FILLER_0_25_223
*754 FILLER_0_25_225
*755 FILLER_0_25_237
*756 FILLER_0_25_249
*757 FILLER_0_25_261
*758 FILLER_0_25_27
*759 FILLER_0_25_273
*760 FILLER_0_25_279
*761 FILLER_0_25_281
*762 FILLER_0_25_293
*763 FILLER_0_25_3
*764 FILLER_0_25_305
*765 FILLER_0_25_317
*766 FILLER_0_25_329
*767 FILLER_0_25_335
*768 FILLER_0_25_337
*769 FILLER_0_25_349
*770 FILLER_0_25_39
*771 FILLER_0_25_51
*772 FILLER_0_25_55
*773 FILLER_0_25_57
*774 FILLER_0_25_69
*775 FILLER_0_25_81
*776 FILLER_0_25_93
*777 FILLER_0_26_109
*778 FILLER_0_26_121
*779 FILLER_0_26_133
*780 FILLER_0_26_139
*781 FILLER_0_26_141
*782 FILLER_0_26_15
*783 FILLER_0_26_153
*784 FILLER_0_26_165
*785 FILLER_0_26_177
*786 FILLER_0_26_189
*787 FILLER_0_26_195
*788 FILLER_0_26_197
*789 FILLER_0_26_209
*790 FILLER_0_26_221
*791 FILLER_0_26_233
*792 FILLER_0_26_245
*793 FILLER_0_26_251
*794 FILLER_0_26_253
*795 FILLER_0_26_265
*796 FILLER_0_26_27
*797 FILLER_0_26_277
*798 FILLER_0_26_289
*799 FILLER_0_26_29
*800 FILLER_0_26_3
*801 FILLER_0_26_301
*802 FILLER_0_26_307
*803 FILLER_0_26_309
*804 FILLER_0_26_321
*805 FILLER_0_26_333
*806 FILLER_0_26_345
*807 FILLER_0_26_41
*808 FILLER_0_26_53
*809 FILLER_0_26_65
*810 FILLER_0_26_77
*811 FILLER_0_26_83
*812 FILLER_0_26_85
*813 FILLER_0_26_97
*814 FILLER_0_27_105
*815 FILLER_0_27_111
*816 FILLER_0_27_113
*817 FILLER_0_27_125
*818 FILLER_0_27_137
*819 FILLER_0_27_149
*820 FILLER_0_27_15
*821 FILLER_0_27_161
*822 FILLER_0_27_167
*823 FILLER_0_27_169
*824 FILLER_0_27_181
*825 FILLER_0_27_193
*826 FILLER_0_27_205
*827 FILLER_0_27_217
*828 FILLER_0_27_223
*829 FILLER_0_27_225
*830 FILLER_0_27_237
*831 FILLER_0_27_249
*832 FILLER_0_27_261
*833 FILLER_0_27_27
*834 FILLER_0_27_273
*835 FILLER_0_27_279
*836 FILLER_0_27_281
*837 FILLER_0_27_293
*838 FILLER_0_27_3
*839 FILLER_0_27_305
*840 FILLER_0_27_317
*841 FILLER_0_27_329
*842 FILLER_0_27_335
*843 FILLER_0_27_337
*844 FILLER_0_27_349
*845 FILLER_0_27_39
*846 FILLER_0_27_51
*847 FILLER_0_27_55
*848 FILLER_0_27_57
*849 FILLER_0_27_69
*850 FILLER_0_27_81
*851 FILLER_0_27_93
*852 FILLER_0_28_109
*853 FILLER_0_28_121
*854 FILLER_0_28_133
*855 FILLER_0_28_139
*856 FILLER_0_28_141
*857 FILLER_0_28_15
*858 FILLER_0_28_153
*859 FILLER_0_28_165
*860 FILLER_0_28_177
*861 FILLER_0_28_189
*862 FILLER_0_28_195
*863 FILLER_0_28_197
*864 FILLER_0_28_209
*865 FILLER_0_28_221
*866 FILLER_0_28_233
*867 FILLER_0_28_245
*868 FILLER_0_28_251
*869 FILLER_0_28_253
*870 FILLER_0_28_265
*871 FILLER_0_28_27
*872 FILLER_0_28_277
*873 FILLER_0_28_289
*874 FILLER_0_28_29
*875 FILLER_0_28_3
*876 FILLER_0_28_301
*877 FILLER_0_28_307
*878 FILLER_0_28_309
*879 FILLER_0_28_321
*880 FILLER_0_28_333
*881 FILLER_0_28_345
*882 FILLER_0_28_41
*883 FILLER_0_28_53
*884 FILLER_0_28_65
*885 FILLER_0_28_77
*886 FILLER_0_28_83
*887 FILLER_0_28_85
*888 FILLER_0_28_97
*889 FILLER_0_29_105
*890 FILLER_0_29_111
*891 FILLER_0_29_113
*892 FILLER_0_29_125
*893 FILLER_0_29_137
*894 FILLER_0_29_149
*895 FILLER_0_29_15
*896 FILLER_0_29_161
*897 FILLER_0_29_167
*898 FILLER_0_29_169
*899 FILLER_0_29_181
*900 FILLER_0_29_193
*901 FILLER_0_29_205
*902 FILLER_0_29_217
*903 FILLER_0_29_223
*904 FILLER_0_29_225
*905 FILLER_0_29_237
*906 FILLER_0_29_249
*907 FILLER_0_29_261
*908 FILLER_0_29_27
*909 FILLER_0_29_273
*910 FILLER_0_29_279
*911 FILLER_0_29_281
*912 FILLER_0_29_293
*913 FILLER_0_29_3
*914 FILLER_0_29_305
*915 FILLER_0_29_317
*916 FILLER_0_29_329
*917 FILLER_0_29_335
*918 FILLER_0_29_337
*919 FILLER_0_29_349
*920 FILLER_0_29_39
*921 FILLER_0_29_51
*922 FILLER_0_29_55
*923 FILLER_0_29_57
*924 FILLER_0_29_69
*925 FILLER_0_29_81
*926 FILLER_0_29_93
*927 FILLER_0_2_109
*928 FILLER_0_2_121
*929 FILLER_0_2_133
*930 FILLER_0_2_139
*931 FILLER_0_2_141
*932 FILLER_0_2_15
*933 FILLER_0_2_153
*934 FILLER_0_2_165
*935 FILLER_0_2_177
*936 FILLER_0_2_189
*937 FILLER_0_2_195
*938 FILLER_0_2_197
*939 FILLER_0_2_209
*940 FILLER_0_2_221
*941 FILLER_0_2_233
*942 FILLER_0_2_245
*943 FILLER_0_2_251
*944 FILLER_0_2_253
*945 FILLER_0_2_265
*946 FILLER_0_2_27
*947 FILLER_0_2_277
*948 FILLER_0_2_289
*949 FILLER_0_2_29
*950 FILLER_0_2_3
*951 FILLER_0_2_301
*952 FILLER_0_2_307
*953 FILLER_0_2_309
*954 FILLER_0_2_321
*955 FILLER_0_2_333
*956 FILLER_0_2_345
*957 FILLER_0_2_41
*958 FILLER_0_2_53
*959 FILLER_0_2_65
*960 FILLER_0_2_77
*961 FILLER_0_2_83
*962 FILLER_0_2_85
*963 FILLER_0_2_97
*964 FILLER_0_30_109
*965 FILLER_0_30_121
*966 FILLER_0_30_133
*967 FILLER_0_30_139
*968 FILLER_0_30_141
*969 FILLER_0_30_15
*970 FILLER_0_30_153
*971 FILLER_0_30_165
*972 FILLER_0_30_177
*973 FILLER_0_30_189
*974 FILLER_0_30_195
*975 FILLER_0_30_197
*976 FILLER_0_30_209
*977 FILLER_0_30_221
*978 FILLER_0_30_233
*979 FILLER_0_30_245
*980 FILLER_0_30_251
*981 FILLER_0_30_253
*982 FILLER_0_30_265
*983 FILLER_0_30_27
*984 FILLER_0_30_277
*985 FILLER_0_30_289
*986 FILLER_0_30_29
*987 FILLER_0_30_3
*988 FILLER_0_30_301
*989 FILLER_0_30_307
*990 FILLER_0_30_309
*991 FILLER_0_30_321
*992 FILLER_0_30_333
*993 FILLER_0_30_345
*994 FILLER_0_30_41
*995 FILLER_0_30_53
*996 FILLER_0_30_65
*997 FILLER_0_30_77
*998 FILLER_0_30_83
*999 FILLER_0_30_85
*1000 FILLER_0_30_97
*1001 FILLER_0_31_105
*1002 FILLER_0_31_111
*1003 FILLER_0_31_113
*1004 FILLER_0_31_125
*1005 FILLER_0_31_137
*1006 FILLER_0_31_149
*1007 FILLER_0_31_15
*1008 FILLER_0_31_161
*1009 FILLER_0_31_167
*1010 FILLER_0_31_169
*1011 FILLER_0_31_181
*1012 FILLER_0_31_193
*1013 FILLER_0_31_205
*1014 FILLER_0_31_217
*1015 FILLER_0_31_223
*1016 FILLER_0_31_225
*1017 FILLER_0_31_237
*1018 FILLER_0_31_249
*1019 FILLER_0_31_261
*1020 FILLER_0_31_27
*1021 FILLER_0_31_273
*1022 FILLER_0_31_279
*1023 FILLER_0_31_281
*1024 FILLER_0_31_293
*1025 FILLER_0_31_3
*1026 FILLER_0_31_305
*1027 FILLER_0_31_317
*1028 FILLER_0_31_329
*1029 FILLER_0_31_335
*1030 FILLER_0_31_337
*1031 FILLER_0_31_349
*1032 FILLER_0_31_39
*1033 FILLER_0_31_51
*1034 FILLER_0_31_55
*1035 FILLER_0_31_57
*1036 FILLER_0_31_69
*1037 FILLER_0_31_81
*1038 FILLER_0_31_93
*1039 FILLER_0_32_109
*1040 FILLER_0_32_121
*1041 FILLER_0_32_133
*1042 FILLER_0_32_139
*1043 FILLER_0_32_141
*1044 FILLER_0_32_15
*1045 FILLER_0_32_153
*1046 FILLER_0_32_165
*1047 FILLER_0_32_177
*1048 FILLER_0_32_189
*1049 FILLER_0_32_195
*1050 FILLER_0_32_197
*1051 FILLER_0_32_209
*1052 FILLER_0_32_221
*1053 FILLER_0_32_233
*1054 FILLER_0_32_245
*1055 FILLER_0_32_251
*1056 FILLER_0_32_253
*1057 FILLER_0_32_265
*1058 FILLER_0_32_27
*1059 FILLER_0_32_277
*1060 FILLER_0_32_289
*1061 FILLER_0_32_29
*1062 FILLER_0_32_3
*1063 FILLER_0_32_301
*1064 FILLER_0_32_307
*1065 FILLER_0_32_309
*1066 FILLER_0_32_321
*1067 FILLER_0_32_333
*1068 FILLER_0_32_345
*1069 FILLER_0_32_41
*1070 FILLER_0_32_53
*1071 FILLER_0_32_65
*1072 FILLER_0_32_77
*1073 FILLER_0_32_83
*1074 FILLER_0_32_85
*1075 FILLER_0_32_97
*1076 FILLER_0_33_105
*1077 FILLER_0_33_111
*1078 FILLER_0_33_113
*1079 FILLER_0_33_125
*1080 FILLER_0_33_137
*1081 FILLER_0_33_149
*1082 FILLER_0_33_15
*1083 FILLER_0_33_161
*1084 FILLER_0_33_167
*1085 FILLER_0_33_169
*1086 FILLER_0_33_181
*1087 FILLER_0_33_193
*1088 FILLER_0_33_205
*1089 FILLER_0_33_217
*1090 FILLER_0_33_223
*1091 FILLER_0_33_225
*1092 FILLER_0_33_237
*1093 FILLER_0_33_249
*1094 FILLER_0_33_261
*1095 FILLER_0_33_27
*1096 FILLER_0_33_273
*1097 FILLER_0_33_279
*1098 FILLER_0_33_281
*1099 FILLER_0_33_293
*1100 FILLER_0_33_3
*1101 FILLER_0_33_305
*1102 FILLER_0_33_317
*1103 FILLER_0_33_329
*1104 FILLER_0_33_335
*1105 FILLER_0_33_337
*1106 FILLER_0_33_349
*1107 FILLER_0_33_39
*1108 FILLER_0_33_51
*1109 FILLER_0_33_55
*1110 FILLER_0_33_57
*1111 FILLER_0_33_69
*1112 FILLER_0_33_81
*1113 FILLER_0_33_93
*1114 FILLER_0_34_123
*1115 FILLER_0_34_135
*1116 FILLER_0_34_139
*1117 FILLER_0_34_15
*1118 FILLER_0_34_161
*1119 FILLER_0_34_183
*1120 FILLER_0_34_195
*1121 FILLER_0_34_197
*1122 FILLER_0_34_208
*1123 FILLER_0_34_220
*1124 FILLER_0_34_232
*1125 FILLER_0_34_244
*1126 FILLER_0_34_253
*1127 FILLER_0_34_265
*1128 FILLER_0_34_27
*1129 FILLER_0_34_277
*1130 FILLER_0_34_289
*1131 FILLER_0_34_29
*1132 FILLER_0_34_3
*1133 FILLER_0_34_301
*1134 FILLER_0_34_307
*1135 FILLER_0_34_309
*1136 FILLER_0_34_321
*1137 FILLER_0_34_333
*1138 FILLER_0_34_345
*1139 FILLER_0_34_41
*1140 FILLER_0_34_53
*1141 FILLER_0_34_65
*1142 FILLER_0_34_77
*1143 FILLER_0_34_83
*1144 FILLER_0_34_85
*1145 FILLER_0_34_97
*1146 FILLER_0_35_101
*1147 FILLER_0_35_106
*1148 FILLER_0_35_113
*1149 FILLER_0_35_143
*1150 FILLER_0_35_15
*1151 FILLER_0_35_172
*1152 FILLER_0_35_203
*1153 FILLER_0_35_225
*1154 FILLER_0_35_252
*1155 FILLER_0_35_264
*1156 FILLER_0_35_27
*1157 FILLER_0_35_276
*1158 FILLER_0_35_281
*1159 FILLER_0_35_293
*1160 FILLER_0_35_3
*1161 FILLER_0_35_305
*1162 FILLER_0_35_317
*1163 FILLER_0_35_329
*1164 FILLER_0_35_335
*1165 FILLER_0_35_337
*1166 FILLER_0_35_349
*1167 FILLER_0_35_39
*1168 FILLER_0_35_51
*1169 FILLER_0_35_55
*1170 FILLER_0_35_57
*1171 FILLER_0_35_69
*1172 FILLER_0_35_81
*1173 FILLER_0_35_93
*1174 FILLER_0_36_123
*1175 FILLER_0_36_135
*1176 FILLER_0_36_139
*1177 FILLER_0_36_141
*1178 FILLER_0_36_145
*1179 FILLER_0_36_15
*1180 FILLER_0_36_150
*1181 FILLER_0_36_162
*1182 FILLER_0_36_170
*1183 FILLER_0_36_176
*1184 FILLER_0_36_180
*1185 FILLER_0_36_184
*1186 FILLER_0_36_203
*1187 FILLER_0_36_226
*1188 FILLER_0_36_238
*1189 FILLER_0_36_250
*1190 FILLER_0_36_253
*1191 FILLER_0_36_259
*1192 FILLER_0_36_27
*1193 FILLER_0_36_283
*1194 FILLER_0_36_29
*1195 FILLER_0_36_295
*1196 FILLER_0_36_3
*1197 FILLER_0_36_307
*1198 FILLER_0_36_309
*1199 FILLER_0_36_321
*1200 FILLER_0_36_333
*1201 FILLER_0_36_345
*1202 FILLER_0_36_41
*1203 FILLER_0_36_53
*1204 FILLER_0_36_65
*1205 FILLER_0_36_77
*1206 FILLER_0_36_83
*1207 FILLER_0_36_85
*1208 FILLER_0_36_97
*1209 FILLER_0_37_101
*1210 FILLER_0_37_106
*1211 FILLER_0_37_113
*1212 FILLER_0_37_139
*1213 FILLER_0_37_15
*1214 FILLER_0_37_167
*1215 FILLER_0_37_213
*1216 FILLER_0_37_225
*1217 FILLER_0_37_229
*1218 FILLER_0_37_256
*1219 FILLER_0_37_27
*1220 FILLER_0_37_281
*1221 FILLER_0_37_290
*1222 FILLER_0_37_295
*1223 FILLER_0_37_3
*1224 FILLER_0_37_305
*1225 FILLER_0_37_322
*1226 FILLER_0_37_334
*1227 FILLER_0_37_337
*1228 FILLER_0_37_349
*1229 FILLER_0_37_39
*1230 FILLER_0_37_51
*1231 FILLER_0_37_55
*1232 FILLER_0_37_57
*1233 FILLER_0_37_69
*1234 FILLER_0_37_81
*1235 FILLER_0_37_93
*1236 FILLER_0_38_102
*1237 FILLER_0_38_106
*1238 FILLER_0_38_110
*1239 FILLER_0_38_113
*1240 FILLER_0_38_118
*1241 FILLER_0_38_122
*1242 FILLER_0_38_126
*1243 FILLER_0_38_130
*1244 FILLER_0_38_134
*1245 FILLER_0_38_14
*1246 FILLER_0_38_162
*1247 FILLER_0_38_167
*1248 FILLER_0_38_169
*1249 FILLER_0_38_18
*1250 FILLER_0_38_197
*1251 FILLER_0_38_22
*1252 FILLER_0_38_222
*1253 FILLER_0_38_246
*1254 FILLER_0_38_250
*1255 FILLER_0_38_274
*1256 FILLER_0_38_281
*1257 FILLER_0_38_3
*1258 FILLER_0_38_306
*1259 FILLER_0_38_32
*1260 FILLER_0_38_332
*1261 FILLER_0_38_337
*1262 FILLER_0_38_349
*1263 FILLER_0_38_38
*1264 FILLER_0_38_42
*1265 FILLER_0_38_46
*1266 FILLER_0_38_50
*1267 FILLER_0_38_54
*1268 FILLER_0_38_57
*1269 FILLER_0_38_62
*1270 FILLER_0_38_66
*1271 FILLER_0_38_70
*1272 FILLER_0_38_74
*1273 FILLER_0_38_78
*1274 FILLER_0_38_88
*1275 FILLER_0_38_94
*1276 FILLER_0_38_98
*1277 FILLER_0_3_105
*1278 FILLER_0_3_111
*1279 FILLER_0_3_113
*1280 FILLER_0_3_125
*1281 FILLER_0_3_137
*1282 FILLER_0_3_149
*1283 FILLER_0_3_15
*1284 FILLER_0_3_161
*1285 FILLER_0_3_167
*1286 FILLER_0_3_169
*1287 FILLER_0_3_181
*1288 FILLER_0_3_193
*1289 FILLER_0_3_205
*1290 FILLER_0_3_217
*1291 FILLER_0_3_223
*1292 FILLER_0_3_225
*1293 FILLER_0_3_237
*1294 FILLER_0_3_249
*1295 FILLER_0_3_261
*1296 FILLER_0_3_27
*1297 FILLER_0_3_273
*1298 FILLER_0_3_279
*1299 FILLER_0_3_281
*1300 FILLER_0_3_293
*1301 FILLER_0_3_3
*1302 FILLER_0_3_305
*1303 FILLER_0_3_317
*1304 FILLER_0_3_329
*1305 FILLER_0_3_335
*1306 FILLER_0_3_337
*1307 FILLER_0_3_349
*1308 FILLER_0_3_39
*1309 FILLER_0_3_51
*1310 FILLER_0_3_55
*1311 FILLER_0_3_57
*1312 FILLER_0_3_69
*1313 FILLER_0_3_81
*1314 FILLER_0_3_93
*1315 FILLER_0_4_109
*1316 FILLER_0_4_121
*1317 FILLER_0_4_133
*1318 FILLER_0_4_139
*1319 FILLER_0_4_141
*1320 FILLER_0_4_15
*1321 FILLER_0_4_153
*1322 FILLER_0_4_165
*1323 FILLER_0_4_177
*1324 FILLER_0_4_189
*1325 FILLER_0_4_195
*1326 FILLER_0_4_197
*1327 FILLER_0_4_209
*1328 FILLER_0_4_221
*1329 FILLER_0_4_233
*1330 FILLER_0_4_245
*1331 FILLER_0_4_251
*1332 FILLER_0_4_253
*1333 FILLER_0_4_265
*1334 FILLER_0_4_27
*1335 FILLER_0_4_277
*1336 FILLER_0_4_289
*1337 FILLER_0_4_29
*1338 FILLER_0_4_3
*1339 FILLER_0_4_301
*1340 FILLER_0_4_307
*1341 FILLER_0_4_309
*1342 FILLER_0_4_321
*1343 FILLER_0_4_333
*1344 FILLER_0_4_345
*1345 FILLER_0_4_41
*1346 FILLER_0_4_53
*1347 FILLER_0_4_65
*1348 FILLER_0_4_77
*1349 FILLER_0_4_83
*1350 FILLER_0_4_85
*1351 FILLER_0_4_97
*1352 FILLER_0_5_105
*1353 FILLER_0_5_111
*1354 FILLER_0_5_113
*1355 FILLER_0_5_125
*1356 FILLER_0_5_137
*1357 FILLER_0_5_149
*1358 FILLER_0_5_15
*1359 FILLER_0_5_161
*1360 FILLER_0_5_167
*1361 FILLER_0_5_169
*1362 FILLER_0_5_181
*1363 FILLER_0_5_193
*1364 FILLER_0_5_205
*1365 FILLER_0_5_217
*1366 FILLER_0_5_223
*1367 FILLER_0_5_225
*1368 FILLER_0_5_237
*1369 FILLER_0_5_249
*1370 FILLER_0_5_261
*1371 FILLER_0_5_27
*1372 FILLER_0_5_273
*1373 FILLER_0_5_279
*1374 FILLER_0_5_281
*1375 FILLER_0_5_293
*1376 FILLER_0_5_3
*1377 FILLER_0_5_305
*1378 FILLER_0_5_317
*1379 FILLER_0_5_329
*1380 FILLER_0_5_335
*1381 FILLER_0_5_337
*1382 FILLER_0_5_349
*1383 FILLER_0_5_39
*1384 FILLER_0_5_51
*1385 FILLER_0_5_55
*1386 FILLER_0_5_57
*1387 FILLER_0_5_69
*1388 FILLER_0_5_81
*1389 FILLER_0_5_93
*1390 FILLER_0_6_109
*1391 FILLER_0_6_121
*1392 FILLER_0_6_133
*1393 FILLER_0_6_139
*1394 FILLER_0_6_141
*1395 FILLER_0_6_15
*1396 FILLER_0_6_153
*1397 FILLER_0_6_165
*1398 FILLER_0_6_177
*1399 FILLER_0_6_189
*1400 FILLER_0_6_195
*1401 FILLER_0_6_197
*1402 FILLER_0_6_209
*1403 FILLER_0_6_221
*1404 FILLER_0_6_233
*1405 FILLER_0_6_245
*1406 FILLER_0_6_251
*1407 FILLER_0_6_253
*1408 FILLER_0_6_265
*1409 FILLER_0_6_27
*1410 FILLER_0_6_277
*1411 FILLER_0_6_289
*1412 FILLER_0_6_29
*1413 FILLER_0_6_3
*1414 FILLER_0_6_301
*1415 FILLER_0_6_307
*1416 FILLER_0_6_309
*1417 FILLER_0_6_321
*1418 FILLER_0_6_333
*1419 FILLER_0_6_345
*1420 FILLER_0_6_41
*1421 FILLER_0_6_53
*1422 FILLER_0_6_65
*1423 FILLER_0_6_77
*1424 FILLER_0_6_83
*1425 FILLER_0_6_85
*1426 FILLER_0_6_97
*1427 FILLER_0_7_105
*1428 FILLER_0_7_111
*1429 FILLER_0_7_113
*1430 FILLER_0_7_125
*1431 FILLER_0_7_137
*1432 FILLER_0_7_149
*1433 FILLER_0_7_15
*1434 FILLER_0_7_161
*1435 FILLER_0_7_167
*1436 FILLER_0_7_169
*1437 FILLER_0_7_181
*1438 FILLER_0_7_193
*1439 FILLER_0_7_205
*1440 FILLER_0_7_217
*1441 FILLER_0_7_223
*1442 FILLER_0_7_225
*1443 FILLER_0_7_237
*1444 FILLER_0_7_249
*1445 FILLER_0_7_261
*1446 FILLER_0_7_27
*1447 FILLER_0_7_273
*1448 FILLER_0_7_279
*1449 FILLER_0_7_281
*1450 FILLER_0_7_293
*1451 FILLER_0_7_3
*1452 FILLER_0_7_305
*1453 FILLER_0_7_317
*1454 FILLER_0_7_329
*1455 FILLER_0_7_335
*1456 FILLER_0_7_337
*1457 FILLER_0_7_349
*1458 FILLER_0_7_39
*1459 FILLER_0_7_51
*1460 FILLER_0_7_55
*1461 FILLER_0_7_57
*1462 FILLER_0_7_69
*1463 FILLER_0_7_81
*1464 FILLER_0_7_93
*1465 FILLER_0_8_109
*1466 FILLER_0_8_121
*1467 FILLER_0_8_133
*1468 FILLER_0_8_139
*1469 FILLER_0_8_141