*SPEF "ieee 1481-1999"
*DESIGN "tt_um_wokwi_380416099936681985"
*DATE "11:11:11 Fri 11 11, 1111"
*VENDOR "OpenRCX"
*PROGRAM "Parallel Extraction"
*VERSION "1.0"
*DESIGN_FLOW "NAME_SCOPE LOCAL" "PIN_CAP NONE"
*DIVIDER /
*DELIMITER :
*BUS_DELIMITER []
*T_UNIT 1 NS
*C_UNIT 1 PF
*R_UNIT 1 OHM
*L_UNIT 1 HENRY

*NAME_MAP
*3 clk
*4 ena
*5 rst_n
*6 ui_in[0]
*7 ui_in[1]
*8 ui_in[2]
*9 ui_in[3]
*10 ui_in[4]
*11 ui_in[5]
*12 ui_in[6]
*13 ui_in[7]
*14 uio_in[0]
*15 uio_in[1]
*16 uio_in[2]
*17 uio_in[3]
*18 uio_in[4]
*19 uio_in[5]
*20 uio_in[6]
*21 uio_in[7]
*22 net9
*23 net10
*24 net11
*25 net12
*26 net13
*27 net14
*28 net15
*29 net16
*30 net17
*31 net18
*32 net19
*33 net20
*34 net21
*35 net22
*36 net23
*37 net24
*38 uo_out[0]
*39 uo_out[1]
*40 uo_out[2]
*41 uo_out[3]
*42 uo_out[4]
*43 uo_out[5]
*44 uo_out[6]
*45 uo_out[7]
*46 _00_
*47 and1\.out
*48 net1
*49 net2
*50 net3
*51 net4
*52 net5
*53 net6
*54 net7
*55 net8
*56 xor1\.out
*57 FILLER_0_0_109
*58 FILLER_0_0_113
*59 FILLER_0_0_125
*60 FILLER_0_0_137
*61 FILLER_0_0_141
*62 FILLER_0_0_15
*63 FILLER_0_0_153
*64 FILLER_0_0_165
*65 FILLER_0_0_169
*66 FILLER_0_0_181
*67 FILLER_0_0_193
*68 FILLER_0_0_197
*69 FILLER_0_0_209
*70 FILLER_0_0_221
*71 FILLER_0_0_225
*72 FILLER_0_0_237
*73 FILLER_0_0_249
*74 FILLER_0_0_253
*75 FILLER_0_0_265
*76 FILLER_0_0_27
*77 FILLER_0_0_277
*78 FILLER_0_0_281
*79 FILLER_0_0_29
*80 FILLER_0_0_293
*81 FILLER_0_0_3
*82 FILLER_0_0_305
*83 FILLER_0_0_309
*84 FILLER_0_0_321
*85 FILLER_0_0_333
*86 FILLER_0_0_337
*87 FILLER_0_0_349
*88 FILLER_0_0_41
*89 FILLER_0_0_53
*90 FILLER_0_0_57
*91 FILLER_0_0_69
*92 FILLER_0_0_81
*93 FILLER_0_0_85
*94 FILLER_0_0_97
*95 FILLER_0_10_109
*96 FILLER_0_10_121
*97 FILLER_0_10_133
*98 FILLER_0_10_139
*99 FILLER_0_10_141
*100 FILLER_0_10_15
*101 FILLER_0_10_153
*102 FILLER_0_10_165
*103 FILLER_0_10_177
*104 FILLER_0_10_189
*105 FILLER_0_10_195
*106 FILLER_0_10_197
*107 FILLER_0_10_209
*108 FILLER_0_10_221
*109 FILLER_0_10_233
*110 FILLER_0_10_245
*111 FILLER_0_10_251
*112 FILLER_0_10_253
*113 FILLER_0_10_265
*114 FILLER_0_10_27
*115 FILLER_0_10_277
*116 FILLER_0_10_289
*117 FILLER_0_10_29
*118 FILLER_0_10_3
*119 FILLER_0_10_301
*120 FILLER_0_10_307
*121 FILLER_0_10_309
*122 FILLER_0_10_321
*123 FILLER_0_10_333
*124 FILLER_0_10_345
*125 FILLER_0_10_41
*126 FILLER_0_10_53
*127 FILLER_0_10_65
*128 FILLER_0_10_77
*129 FILLER_0_10_83
*130 FILLER_0_10_85
*131 FILLER_0_10_97
*132 FILLER_0_11_105
*133 FILLER_0_11_111
*134 FILLER_0_11_113
*135 FILLER_0_11_125
*136 FILLER_0_11_137
*137 FILLER_0_11_149
*138 FILLER_0_11_15
*139 FILLER_0_11_161
*140 FILLER_0_11_167
*141 FILLER_0_11_169
*142 FILLER_0_11_181
*143 FILLER_0_11_193
*144 FILLER_0_11_205
*145 FILLER_0_11_217
*146 FILLER_0_11_223
*147 FILLER_0_11_225
*148 FILLER_0_11_237
*149 FILLER_0_11_249
*150 FILLER_0_11_261
*151 FILLER_0_11_27
*152 FILLER_0_11_273
*153 FILLER_0_11_279
*154 FILLER_0_11_281
*155 FILLER_0_11_293
*156 FILLER_0_11_3
*157 FILLER_0_11_305
*158 FILLER_0_11_317
*159 FILLER_0_11_329
*160 FILLER_0_11_335
*161 FILLER_0_11_337
*162 FILLER_0_11_349
*163 FILLER_0_11_39
*164 FILLER_0_11_51
*165 FILLER_0_11_55
*166 FILLER_0_11_57
*167 FILLER_0_11_69
*168 FILLER_0_11_81
*169 FILLER_0_11_93
*170 FILLER_0_12_109
*171 FILLER_0_12_121
*172 FILLER_0_12_133
*173 FILLER_0_12_139
*174 FILLER_0_12_141
*175 FILLER_0_12_15
*176 FILLER_0_12_153
*177 FILLER_0_12_165
*178 FILLER_0_12_177
*179 FILLER_0_12_189
*180 FILLER_0_12_195
*181 FILLER_0_12_197
*182 FILLER_0_12_209
*183 FILLER_0_12_221
*184 FILLER_0_12_233
*185 FILLER_0_12_245
*186 FILLER_0_12_251
*187 FILLER_0_12_253
*188 FILLER_0_12_265
*189 FILLER_0_12_27
*190 FILLER_0_12_277
*191 FILLER_0_12_289
*192 FILLER_0_12_29
*193 FILLER_0_12_3
*194 FILLER_0_12_301
*195 FILLER_0_12_307
*196 FILLER_0_12_309
*197 FILLER_0_12_321
*198 FILLER_0_12_333
*199 FILLER_0_12_345
*200 FILLER_0_12_41
*201 FILLER_0_12_53
*202 FILLER_0_12_65
*203 FILLER_0_12_77
*204 FILLER_0_12_83
*205 FILLER_0_12_85
*206 FILLER_0_12_97
*207 FILLER_0_13_105
*208 FILLER_0_13_111
*209 FILLER_0_13_113
*210 FILLER_0_13_125
*211 FILLER_0_13_137
*212 FILLER_0_13_149
*213 FILLER_0_13_15
*214 FILLER_0_13_161
*215 FILLER_0_13_167
*216 FILLER_0_13_169
*217 FILLER_0_13_181
*218 FILLER_0_13_193
*219 FILLER_0_13_205
*220 FILLER_0_13_217
*221 FILLER_0_13_223
*222 FILLER_0_13_225
*223 FILLER_0_13_237
*224 FILLER_0_13_249
*225 FILLER_0_13_261
*226 FILLER_0_13_27
*227 FILLER_0_13_273
*228 FILLER_0_13_279
*229 FILLER_0_13_281
*230 FILLER_0_13_293
*231 FILLER_0_13_3
*232 FILLER_0_13_305
*233 FILLER_0_13_317
*234 FILLER_0_13_329
*235 FILLER_0_13_335
*236 FILLER_0_13_337
*237 FILLER_0_13_349
*238 FILLER_0_13_39
*239 FILLER_0_13_51
*240 FILLER_0_13_55
*241 FILLER_0_13_57
*242 FILLER_0_13_69
*243 FILLER_0_13_81
*244 FILLER_0_13_93
*245 FILLER_0_14_109
*246 FILLER_0_14_121
*247 FILLER_0_14_133
*248 FILLER_0_14_139
*249 FILLER_0_14_141
*250 FILLER_0_14_15
*251 FILLER_0_14_153
*252 FILLER_0_14_165
*253 FILLER_0_14_177
*254 FILLER_0_14_189
*255 FILLER_0_14_195
*256 FILLER_0_14_197
*257 FILLER_0_14_209
*258 FILLER_0_14_221
*259 FILLER_0_14_233
*260 FILLER_0_14_245
*261 FILLER_0_14_251
*262 FILLER_0_14_253
*263 FILLER_0_14_265
*264 FILLER_0_14_27
*265 FILLER_0_14_277
*266 FILLER_0_14_289
*267 FILLER_0_14_29
*268 FILLER_0_14_3
*269 FILLER_0_14_301
*270 FILLER_0_14_307
*271 FILLER_0_14_309
*272 FILLER_0_14_321
*273 FILLER_0_14_333
*274 FILLER_0_14_345
*275 FILLER_0_14_41
*276 FILLER_0_14_53
*277 FILLER_0_14_65
*278 FILLER_0_14_77
*279 FILLER_0_14_83
*280 FILLER_0_14_85
*281 FILLER_0_14_97
*282 FILLER_0_15_105
*283 FILLER_0_15_111
*284 FILLER_0_15_113
*285 FILLER_0_15_125
*286 FILLER_0_15_137
*287 FILLER_0_15_149
*288 FILLER_0_15_15
*289 FILLER_0_15_161
*290 FILLER_0_15_167
*291 FILLER_0_15_169
*292 FILLER_0_15_181
*293 FILLER_0_15_193
*294 FILLER_0_15_205
*295 FILLER_0_15_217
*296 FILLER_0_15_223
*297 FILLER_0_15_225
*298 FILLER_0_15_237
*299 FILLER_0_15_249
*300 FILLER_0_15_261
*301 FILLER_0_15_27
*302 FILLER_0_15_273
*303 FILLER_0_15_279
*304 FILLER_0_15_281
*305 FILLER_0_15_293
*306 FILLER_0_15_3
*307 FILLER_0_15_305
*308 FILLER_0_15_317
*309 FILLER_0_15_329
*310 FILLER_0_15_335
*311 FILLER_0_15_337
*312 FILLER_0_15_349
*313 FILLER_0_15_39
*314 FILLER_0_15_51
*315 FILLER_0_15_55
*316 FILLER_0_15_57
*317 FILLER_0_15_69
*318 FILLER_0_15_81
*319 FILLER_0_15_93
*320 FILLER_0_16_109
*321 FILLER_0_16_121
*322 FILLER_0_16_133
*323 FILLER_0_16_139
*324 FILLER_0_16_141
*325 FILLER_0_16_15
*326 FILLER_0_16_153
*327 FILLER_0_16_165
*328 FILLER_0_16_177
*329 FILLER_0_16_189
*330 FILLER_0_16_195
*331 FILLER_0_16_197
*332 FILLER_0_16_209
*333 FILLER_0_16_221
*334 FILLER_0_16_233
*335 FILLER_0_16_245
*336 FILLER_0_16_251
*337 FILLER_0_16_253
*338 FILLER_0_16_265
*339 FILLER_0_16_27
*340 FILLER_0_16_277
*341 FILLER_0_16_289
*342 FILLER_0_16_29
*343 FILLER_0_16_3
*344 FILLER_0_16_301
*345 FILLER_0_16_307
*346 FILLER_0_16_309
*347 FILLER_0_16_321
*348 FILLER_0_16_333
*349 FILLER_0_16_345
*350 FILLER_0_16_41
*351 FILLER_0_16_53
*352 FILLER_0_16_65
*353 FILLER_0_16_77
*354 FILLER_0_16_83
*355 FILLER_0_16_85
*356 FILLER_0_16_97
*357 FILLER_0_17_105
*358 FILLER_0_17_111
*359 FILLER_0_17_113
*360 FILLER_0_17_125
*361 FILLER_0_17_137
*362 FILLER_0_17_149
*363 FILLER_0_17_15
*364 FILLER_0_17_161
*365 FILLER_0_17_167
*366 FILLER_0_17_169
*367 FILLER_0_17_181
*368 FILLER_0_17_193
*369 FILLER_0_17_205
*370 FILLER_0_17_217
*371 FILLER_0_17_223
*372 FILLER_0_17_225
*373 FILLER_0_17_237
*374 FILLER_0_17_249
*375 FILLER_0_17_261
*376 FILLER_0_17_27
*377 FILLER_0_17_273
*378 FILLER_0_17_279
*379 FILLER_0_17_281
*380 FILLER_0_17_293
*381 FILLER_0_17_3
*382 FILLER_0_17_305
*383 FILLER_0_17_317
*384 FILLER_0_17_329
*385 FILLER_0_17_335
*386 FILLER_0_17_337
*387 FILLER_0_17_349
*388 FILLER_0_17_39
*389 FILLER_0_17_51
*390 FILLER_0_17_55
*391 FILLER_0_17_57
*392 FILLER_0_17_69
*393 FILLER_0_17_81
*394 FILLER_0_17_93
*395 FILLER_0_18_109
*396 FILLER_0_18_121
*397 FILLER_0_18_133
*398 FILLER_0_18_139
*399 FILLER_0_18_141
*400 FILLER_0_18_15
*401 FILLER_0_18_153
*402 FILLER_0_18_165
*403 FILLER_0_18_177
*404 FILLER_0_18_189
*405 FILLER_0_18_195
*406 FILLER_0_18_197
*407 FILLER_0_18_209
*408 FILLER_0_18_221
*409 FILLER_0_18_233
*410 FILLER_0_18_245
*411 FILLER_0_18_251
*412 FILLER_0_18_253
*413 FILLER_0_18_265
*414 FILLER_0_18_27
*415 FILLER_0_18_277
*416 FILLER_0_18_289
*417 FILLER_0_18_29
*418 FILLER_0_18_3
*419 FILLER_0_18_301
*420 FILLER_0_18_307
*421 FILLER_0_18_309
*422 FILLER_0_18_321
*423 FILLER_0_18_333
*424 FILLER_0_18_345
*425 FILLER_0_18_41
*426 FILLER_0_18_53
*427 FILLER_0_18_65
*428 FILLER_0_18_77
*429 FILLER_0_18_83
*430 FILLER_0_18_85
*431 FILLER_0_18_97
*432 FILLER_0_19_105
*433 FILLER_0_19_111
*434 FILLER_0_19_113
*435 FILLER_0_19_125
*436 FILLER_0_19_137
*437 FILLER_0_19_149
*438 FILLER_0_19_15
*439 FILLER_0_19_161
*440 FILLER_0_19_167
*441 FILLER_0_19_169
*442 FILLER_0_19_181
*443 FILLER_0_19_193
*444 FILLER_0_19_205
*445 FILLER_0_19_217
*446 FILLER_0_19_223
*447 FILLER_0_19_225
*448 FILLER_0_19_237
*449 FILLER_0_19_249
*450 FILLER_0_19_261
*451 FILLER_0_19_27
*452 FILLER_0_19_273
*453 FILLER_0_19_279
*454 FILLER_0_19_281
*455 FILLER_0_19_293
*456 FILLER_0_19_3
*457 FILLER_0_19_305
*458 FILLER_0_19_317
*459 FILLER_0_19_329
*460 FILLER_0_19_335
*461 FILLER_0_19_337
*462 FILLER_0_19_349
*463 FILLER_0_19_39
*464 FILLER_0_19_51
*465 FILLER_0_19_55
*466 FILLER_0_19_57
*467 FILLER_0_19_69
*468 FILLER_0_19_81
*469 FILLER_0_19_93
*470 FILLER_0_1_105
*471 FILLER_0_1_111
*472 FILLER_0_1_113
*473 FILLER_0_1_125
*474 FILLER_0_1_137
*475 FILLER_0_1_149
*476 FILLER_0_1_15
*477 FILLER_0_1_161
*478 FILLER_0_1_167
*479 FILLER_0_1_169
*480 FILLER_0_1_181
*481 FILLER_0_1_193
*482 FILLER_0_1_205
*483 FILLER_0_1_217
*484 FILLER_0_1_223
*485 FILLER_0_1_225
*486 FILLER_0_1_237
*487 FILLER_0_1_249
*488 FILLER_0_1_261
*489 FILLER_0_1_27
*490 FILLER_0_1_273
*491 FILLER_0_1_279
*492 FILLER_0_1_281
*493 FILLER_0_1_293
*494 FILLER_0_1_3
*495 FILLER_0_1_305
*496 FILLER_0_1_317
*497 FILLER_0_1_329
*498 FILLER_0_1_335
*499 FILLER_0_1_337
*500 FILLER_0_1_349
*501 FILLER_0_1_39
*502 FILLER_0_1_51
*503 FILLER_0_1_55
*504 FILLER_0_1_57
*505 FILLER_0_1_69
*506 FILLER_0_1_81
*507 FILLER_0_1_93
*508 FILLER_0_20_109
*509 FILLER_0_20_121
*510 FILLER_0_20_133
*511 FILLER_0_20_139
*512 FILLER_0_20_141
*513 FILLER_0_20_15
*514 FILLER_0_20_153
*515 FILLER_0_20_165
*516 FILLER_0_20_177
*517 FILLER_0_20_189
*518 FILLER_0_20_195
*519 FILLER_0_20_197
*520 FILLER_0_20_209
*521 FILLER_0_20_221
*522 FILLER_0_20_233
*523 FILLER_0_20_245
*524 FILLER_0_20_251
*525 FILLER_0_20_253
*526 FILLER_0_20_265
*527 FILLER_0_20_27
*528 FILLER_0_20_277
*529 FILLER_0_20_289
*530 FILLER_0_20_29
*531 FILLER_0_20_3
*532 FILLER_0_20_301
*533 FILLER_0_20_307
*534 FILLER_0_20_309
*535 FILLER_0_20_321
*536 FILLER_0_20_333
*537 FILLER_0_20_345
*538 FILLER_0_20_41
*539 FILLER_0_20_53
*540 FILLER_0_20_65
*541 FILLER_0_20_77
*542 FILLER_0_20_83
*543 FILLER_0_20_85
*544 FILLER_0_20_97
*545 FILLER_0_21_105
*546 FILLER_0_21_111
*547 FILLER_0_21_113
*548 FILLER_0_21_125
*549 FILLER_0_21_137
*550 FILLER_0_21_149
*551 FILLER_0_21_15
*552 FILLER_0_21_161
*553 FILLER_0_21_167
*554 FILLER_0_21_169
*555 FILLER_0_21_181
*556 FILLER_0_21_193
*557 FILLER_0_21_205
*558 FILLER_0_21_217
*559 FILLER_0_21_223
*560 FILLER_0_21_225
*561 FILLER_0_21_237
*562 FILLER_0_21_249
*563 FILLER_0_21_261
*564 FILLER_0_21_27
*565 FILLER_0_21_273
*566 FILLER_0_21_279
*567 FILLER_0_21_281
*568 FILLER_0_21_293
*569 FILLER_0_21_3
*570 FILLER_0_21_305
*571 FILLER_0_21_317
*572 FILLER_0_21_329
*573 FILLER_0_21_335
*574 FILLER_0_21_337
*575 FILLER_0_21_349
*576 FILLER_0_21_39
*577 FILLER_0_21_51
*578 FILLER_0_21_55
*579 FILLER_0_21_57
*580 FILLER_0_21_69
*581 FILLER_0_21_81
*582 FILLER_0_21_93
*583 FILLER_0_22_109
*584 FILLER_0_22_121
*585 FILLER_0_22_133
*586 FILLER_0_22_139
*587 FILLER_0_22_141
*588 FILLER_0_22_15
*589 FILLER_0_22_153
*590 FILLER_0_22_165
*591 FILLER_0_22_177
*592 FILLER_0_22_189
*593 FILLER_0_22_195
*594 FILLER_0_22_197
*595 FILLER_0_22_209
*596 FILLER_0_22_221
*597 FILLER_0_22_233
*598 FILLER_0_22_245
*599 FILLER_0_22_251
*600 FILLER_0_22_253
*601 FILLER_0_22_265
*602 FILLER_0_22_27
*603 FILLER_0_22_277
*604 FILLER_0_22_289
*605 FILLER_0_22_29
*606 FILLER_0_22_3
*607 FILLER_0_22_301
*608 FILLER_0_22_307
*609 FILLER_0_22_309
*610 FILLER_0_22_321
*611 FILLER_0_22_333
*612 FILLER_0_22_345
*613 FILLER_0_22_41
*614 FILLER_0_22_53
*615 FILLER_0_22_65
*616 FILLER_0_22_77
*617 FILLER_0_22_83
*618 FILLER_0_22_85
*619 FILLER_0_22_97
*620 FILLER_0_23_105
*621 FILLER_0_23_111
*622 FILLER_0_23_113
*623 FILLER_0_23_125
*624 FILLER_0_23_137
*625 FILLER_0_23_149
*626 FILLER_0_23_15
*627 FILLER_0_23_161
*628 FILLER_0_23_167
*629 FILLER_0_23_169
*630 FILLER_0_23_181
*631 FILLER_0_23_193
*632 FILLER_0_23_205
*633 FILLER_0_23_217
*634 FILLER_0_23_223
*635 FILLER_0_23_225
*636 FILLER_0_23_237
*637 FILLER_0_23_249
*638 FILLER_0_23_261
*639 FILLER_0_23_27
*640 FILLER_0_23_273
*641 FILLER_0_23_279
*642 FILLER_0_23_281
*643 FILLER_0_23_293
*644 FILLER_0_23_3
*645 FILLER_0_23_305
*646 FILLER_0_23_317
*647 FILLER_0_23_329
*648 FILLER_0_23_335
*649 FILLER_0_23_337
*650 FILLER_0_23_349
*651 FILLER_0_23_39
*652 FILLER_0_23_51
*653 FILLER_0_23_55
*654 FILLER_0_23_57
*655 FILLER_0_23_69
*656 FILLER_0_23_81
*657 FILLER_0_23_93
*658 FILLER_0_24_109
*659 FILLER_0_24_121
*660 FILLER_0_24_133
*661 FILLER_0_24_139
*662 FILLER_0_24_141
*663 FILLER_0_24_15
*664 FILLER_0_24_153
*665 FILLER_0_24_165
*666 FILLER_0_24_177
*667 FILLER_0_24_189
*668 FILLER_0_24_195
*669 FILLER_0_24_197
*670 FILLER_0_24_209
*671 FILLER_0_24_221
*672 FILLER_0_24_233
*673 FILLER_0_24_245
*674 FILLER_0_24_251
*675 FILLER_0_24_253
*676 FILLER_0_24_265
*677 FILLER_0_24_27
*678 FILLER_0_24_277
*679 FILLER_0_24_289
*680 FILLER_0_24_29
*681 FILLER_0_24_3
*682 FILLER_0_24_301
*683 FILLER_0_24_307
*684 FILLER_0_24_309
*685 FILLER_0_24_321
*686 FILLER_0_24_333
*687 FILLER_0_24_345
*688 FILLER_0_24_41
*689 FILLER_0_24_53
*690 FILLER_0_24_65
*691 FILLER_0_24_77
*692 FILLER_0_24_83
*693 FILLER_0_24_85
*694 FILLER_0_24_97
*695 FILLER_0_25_105
*696 FILLER_0_25_111
*697 FILLER_0_25_113
*698 FILLER_0_25_125
*699 FILLER_0_25_137
*700 FILLER_0_25_149
*701 FILLER_0_25_15
*702 FILLER_0_25_161
*703 FILLER_0_25_167
*704 FILLER_0_25_169
*705 FILLER_0_25_181
*706 FILLER_0_25_193
*707 FILLER_0_25_205
*708 FILLER_0_25_217
*709 FILLER_0_25_223
*710 FILLER_0_25_225
*711 FILLER_0_25_237
*712 FILLER_0_25_249
*713 FILLER_0_25_261
*714 FILLER_0_25_27
*715 FILLER_0_25_273
*716 FILLER_0_25_279
*717 FILLER_0_25_281
*718 FILLER_0_25_293
*719 FILLER_0_25_3
*720 FILLER_0_25_305
*721 FILLER_0_25_317
*722 FILLER_0_25_329
*723 FILLER_0_25_335
*724 FILLER_0_25_337
*725 FILLER_0_25_349
*726 FILLER_0_25_39
*727 FILLER_0_25_51
*728 FILLER_0_25_55
*729 FILLER_0_25_57
*730 FILLER_0_25_69
*731 FILLER_0_25_81
*732 FILLER_0_25_93
*733 FILLER_0_26_109
*734 FILLER_0_26_121
*735 FILLER_0_26_133
*736 FILLER_0_26_139
*737 FILLER_0_26_141
*738 FILLER_0_26_15
*739 FILLER_0_26_153
*740 FILLER_0_26_165
*741 FILLER_0_26_177
*742 FILLER_0_26_189
*743 FILLER_0_26_195
*744 FILLER_0_26_197
*745 FILLER_0_26_209
*746 FILLER_0_26_221
*747 FILLER_0_26_233
*748 FILLER_0_26_245
*749 FILLER_0_26_251
*750 FILLER_0_26_253
*751 FILLER_0_26_265
*752 FILLER_0_26_27
*753 FILLER_0_26_277
*754 FILLER_0_26_289
*755 FILLER_0_26_29
*756 FILLER_0_26_3
*757 FILLER_0_26_301
*758 FILLER_0_26_307
*759 FILLER_0_26_309
*760 FILLER_0_26_321
*761 FILLER_0_26_333
*762 FILLER_0_26_345
*763 FILLER_0_26_41
*764 FILLER_0_26_53
*765 FILLER_0_26_65
*766 FILLER_0_26_77
*767 FILLER_0_26_83
*768 FILLER_0_26_85
*769 FILLER_0_26_97
*770 FILLER_0_27_105
*771 FILLER_0_27_111
*772 FILLER_0_27_113
*773 FILLER_0_27_125
*774 FILLER_0_27_137
*775 FILLER_0_27_149
*776 FILLER_0_27_15
*777 FILLER_0_27_161
*778 FILLER_0_27_167
*779 FILLER_0_27_169
*780 FILLER_0_27_181
*781 FILLER_0_27_193
*782 FILLER_0_27_205
*783 FILLER_0_27_217
*784 FILLER_0_27_223
*785 FILLER_0_27_225
*786 FILLER_0_27_237
*787 FILLER_0_27_249
*788 FILLER_0_27_261
*789 FILLER_0_27_27
*790 FILLER_0_27_273
*791 FILLER_0_27_279
*792 FILLER_0_27_281
*793 FILLER_0_27_293
*794 FILLER_0_27_3
*795 FILLER_0_27_305
*796 FILLER_0_27_317
*797 FILLER_0_27_329
*798 FILLER_0_27_335
*799 FILLER_0_27_337
*800 FILLER_0_27_349
*801 FILLER_0_27_39
*802 FILLER_0_27_51
*803 FILLER_0_27_55
*804 FILLER_0_27_57
*805 FILLER_0_27_69
*806 FILLER_0_27_81
*807 FILLER_0_27_93
*808 FILLER_0_28_109
*809 FILLER_0_28_121
*810 FILLER_0_28_133
*811 FILLER_0_28_139
*812 FILLER_0_28_141
*813 FILLER_0_28_15
*814 FILLER_0_28_153
*815 FILLER_0_28_165
*816 FILLER_0_28_177
*817 FILLER_0_28_189
*818 FILLER_0_28_195
*819 FILLER_0_28_197
*820 FILLER_0_28_209
*821 FILLER_0_28_221
*822 FILLER_0_28_233
*823 FILLER_0_28_245
*824 FILLER_0_28_251
*825 FILLER_0_28_253
*826 FILLER_0_28_265
*827 FILLER_0_28_27
*828 FILLER_0_28_277
*829 FILLER_0_28_289
*830 FILLER_0_28_29
*831 FILLER_0_28_3
*832 FILLER_0_28_301
*833 FILLER_0_28_307
*834 FILLER_0_28_309
*835 FILLER_0_28_321
*836 FILLER_0_28_333
*837 FILLER_0_28_345
*838 FILLER_0_28_41
*839 FILLER_0_28_53
*840 FILLER_0_28_65
*841 FILLER_0_28_77
*842 FILLER_0_28_83
*843 FILLER_0_28_85
*844 FILLER_0_28_97
*845 FILLER_0_29_105
*846 FILLER_0_29_111
*847 FILLER_0_29_113
*848 FILLER_0_29_125
*849 FILLER_0_29_137
*850 FILLER_0_29_149
*851 FILLER_0_29_15
*852 FILLER_0_29_161
*853 FILLER_0_29_167
*854 FILLER_0_29_169
*855 FILLER_0_29_181
*856 FILLER_0_29_193
*857 FILLER_0_29_205
*858 FILLER_0_29_217
*859 FILLER_0_29_223
*860 FILLER_0_29_225
*861 FILLER_0_29_237
*862 FILLER_0_29_249
*863 FILLER_0_29_261
*864 FILLER_0_29_27
*865 FILLER_0_29_273
*866 FILLER_0_29_279
*867 FILLER_0_29_281
*868 FILLER_0_29_293
*869 FILLER_0_29_3
*870 FILLER_0_29_305
*871 FILLER_0_29_317
*872 FILLER_0_29_329
*873 FILLER_0_29_335
*874 FILLER_0_29_337
*875 FILLER_0_29_349
*876 FILLER_0_29_39
*877 FILLER_0_29_51
*878 FILLER_0_29_55
*879 FILLER_0_29_57
*880 FILLER_0_29_69
*881 FILLER_0_29_81
*882 FILLER_0_29_93
*883 FILLER_0_2_109
*884 FILLER_0_2_121
*885 FILLER_0_2_133
*886 FILLER_0_2_139
*887 FILLER_0_2_141
*888 FILLER_0_2_15
*889 FILLER_0_2_153
*890 FILLER_0_2_165
*891 FILLER_0_2_177
*892 FILLER_0_2_189
*893 FILLER_0_2_195
*894 FILLER_0_2_197
*895 FILLER_0_2_209
*896 FILLER_0_2_221
*897 FILLER_0_2_233
*898 FILLER_0_2_245
*899 FILLER_0_2_251
*900 FILLER_0_2_253
*901 FILLER_0_2_265
*902 FILLER_0_2_27
*903 FILLER_0_2_277
*904 FILLER_0_2_289
*905 FILLER_0_2_29
*906 FILLER_0_2_3
*907 FILLER_0_2_301
*908 FILLER_0_2_307
*909 FILLER_0_2_309
*910 FILLER_0_2_321
*911 FILLER_0_2_333
*912 FILLER_0_2_345
*913 FILLER_0_2_41
*914 FILLER_0_2_53
*915 FILLER_0_2_65
*916 FILLER_0_2_77
*917 FILLER_0_2_83
*918 FILLER_0_2_85
*919 FILLER_0_2_97
*920 FILLER_0_30_109
*921 FILLER_0_30_121
*922 FILLER_0_30_133
*923 FILLER_0_30_139
*924 FILLER_0_30_141
*925 FILLER_0_30_15
*926 FILLER_0_30_153
*927 FILLER_0_30_165
*928 FILLER_0_30_177
*929 FILLER_0_30_189
*930 FILLER_0_30_195
*931 FILLER_0_30_197
*932 FILLER_0_30_209
*933 FILLER_0_30_221
*934 FILLER_0_30_233
*935 FILLER_0_30_245
*936 FILLER_0_30_251
*937 FILLER_0_30_253
*938 FILLER_0_30_265
*939 FILLER_0_30_27
*940 FILLER_0_30_277
*941 FILLER_0_30_289
*942 FILLER_0_30_29
*943 FILLER_0_30_3
*944 FILLER_0_30_301
*945 FILLER_0_30_307
*946 FILLER_0_30_309
*947 FILLER_0_30_321
*948 FILLER_0_30_333
*949 FILLER_0_30_345
*950 FILLER_0_30_41
*951 FILLER_0_30_53
*952 FILLER_0_30_65
*953 FILLER_0_30_77
*954 FILLER_0_30_83
*955 FILLER_0_30_85
*956 FILLER_0_30_97
*957 FILLER_0_31_105
*958 FILLER_0_31_111
*959 FILLER_0_31_113
*960 FILLER_0_31_125
*961 FILLER_0_31_137
*962 FILLER_0_31_149
*963 FILLER_0_31_15
*964 FILLER_0_31_161
*965 FILLER_0_31_167
*966 FILLER_0_31_169
*967 FILLER_0_31_181
*968 FILLER_0_31_193
*969 FILLER_0_31_205
*970 FILLER_0_31_217
*971 FILLER_0_31_223
*972 FILLER_0_31_225
*973 FILLER_0_31_237
*974 FILLER_0_31_249
*975 FILLER_0_31_261
*976 FILLER_0_31_27
*977 FILLER_0_31_273
*978 FILLER_0_31_279
*979 FILLER_0_31_281
*980 FILLER_0_31_293
*981 FILLER_0_31_3
*982 FILLER_0_31_305
*983 FILLER_0_31_317
*984 FILLER_0_31_329
*985 FILLER_0_31_335
*986 FILLER_0_31_337
*987 FILLER_0_31_349
*988 FILLER_0_31_39
*989 FILLER_0_31_51
*990 FILLER_0_31_55
*991 FILLER_0_31_57
*992 FILLER_0_31_69
*993 FILLER_0_31_81
*994 FILLER_0_31_93
*995 FILLER_0_32_109
*996 FILLER_0_32_121
*997 FILLER_0_32_133
*998 FILLER_0_32_139
*999 FILLER_0_32_141
*1000 FILLER_0_32_15
*1001 FILLER_0_32_153
*1002 FILLER_0_32_165
*1003 FILLER_0_32_177
*1004 FILLER_0_32_189
*1005 FILLER_0_32_195
*1006 FILLER_0_32_197
*1007 FILLER_0_32_209
*1008 FILLER_0_32_221
*1009 FILLER_0_32_233
*1010 FILLER_0_32_245
*1011 FILLER_0_32_251
*1012 FILLER_0_32_253
*1013 FILLER_0_32_265
*1014 FILLER_0_32_27
*1015 FILLER_0_32_277
*1016 FILLER_0_32_289
*1017 FILLER_0_32_29
*1018 FILLER_0_32_3
*1019 FILLER_0_32_301
*1020 FILLER_0_32_307
*1021 FILLER_0_32_309
*1022 FILLER_0_32_321
*1023 FILLER_0_32_333
*1024 FILLER_0_32_345
*1025 FILLER_0_32_41
*1026 FILLER_0_32_53
*1027 FILLER_0_32_65
*1028 FILLER_0_32_77
*1029 FILLER_0_32_83
*1030 FILLER_0_32_85
*1031 FILLER_0_32_97
*1032 FILLER_0_33_105
*1033 FILLER_0_33_111
*1034 FILLER_0_33_113
*1035 FILLER_0_33_125
*1036 FILLER_0_33_137
*1037 FILLER_0_33_149
*1038 FILLER_0_33_15
*1039 FILLER_0_33_161
*1040 FILLER_0_33_167
*1041 FILLER_0_33_169
*1042 FILLER_0_33_181
*1043 FILLER_0_33_193
*1044 FILLER_0_33_205
*1045 FILLER_0_33_217
*1046 FILLER_0_33_223
*1047 FILLER_0_33_225
*1048 FILLER_0_33_237
*1049 FILLER_0_33_249
*1050 FILLER_0_33_261
*1051 FILLER_0_33_27
*1052 FILLER_0_33_273
*1053 FILLER_0_33_279
*1054 FILLER_0_33_281
*1055 FILLER_0_33_293
*1056 FILLER_0_33_3
*1057 FILLER_0_33_305
*1058 FILLER_0_33_317
*1059 FILLER_0_33_329
*1060 FILLER_0_33_335
*1061 FILLER_0_33_337
*1062 FILLER_0_33_349
*1063 FILLER_0_33_39
*1064 FILLER_0_33_51
*1065 FILLER_0_33_55
*1066 FILLER_0_33_57
*1067 FILLER_0_33_69
*1068 FILLER_0_33_81
*1069 FILLER_0_33_93
*1070 FILLER_0_34_109
*1071 FILLER_0_34_121
*1072 FILLER_0_34_133
*1073 FILLER_0_34_139
*1074 FILLER_0_34_141
*1075 FILLER_0_34_15
*1076 FILLER_0_34_153
*1077 FILLER_0_34_165
*1078 FILLER_0_34_177
*1079 FILLER_0_34_189
*1080 FILLER_0_34_195
*1081 FILLER_0_34_197
*1082 FILLER_0_34_209
*1083 FILLER_0_34_221
*1084 FILLER_0_34_233
*1085 FILLER_0_34_245
*1086 FILLER_0_34_251
*1087 FILLER_0_34_253
*1088 FILLER_0_34_265
*1089 FILLER_0_34_27
*1090 FILLER_0_34_277
*1091 FILLER_0_34_289
*1092 FILLER_0_34_29
*1093 FILLER_0_34_3
*1094 FILLER_0_34_301
*1095 FILLER_0_34_307
*1096 FILLER_0_34_309
*1097 FILLER_0_34_321
*1098 FILLER_0_34_333
*1099 FILLER_0_34_345
*1100 FILLER_0_34_41
*1101 FILLER_0_34_53
*1102 FILLER_0_34_65
*1103 FILLER_0_34_77
*1104 FILLER_0_34_83
*1105 FILLER_0_34_85
*1106 FILLER_0_34_97
*1107 FILLER_0_35_105
*1108 FILLER_0_35_111
*1109 FILLER_0_35_113
*1110 FILLER_0_35_125
*1111 FILLER_0_35_137
*1112 FILLER_0_35_149
*1113 FILLER_0_35_15
*1114 FILLER_0_35_161
*1115 FILLER_0_35_167
*1116 FILLER_0_35_169
*1117 FILLER_0_35_181
*1118 FILLER_0_35_193
*1119 FILLER_0_35_205
*1120 FILLER_0_35_217
*1121 FILLER_0_35_223
*1122 FILLER_0_35_225
*1123 FILLER_0_35_237
*1124 FILLER_0_35_249
*1125 FILLER_0_35_261
*1126 FILLER_0_35_27
*1127 FILLER_0_35_273
*1128 FILLER_0_35_279
*1129 FILLER_0_35_281
*1130 FILLER_0_35_293
*1131 FILLER_0_35_3
*1132 FILLER_0_35_305
*1133 FILLER_0_35_317
*1134 FILLER_0_35_329
*1135 FILLER_0_35_335
*1136 FILLER_0_35_337
*1137 FILLER_0_35_349
*1138 FILLER_0_35_39
*1139 FILLER_0_35_51
*1140 FILLER_0_35_55
*1141 FILLER_0_35_57
*1142 FILLER_0_35_69
*1143 FILLER_0_35_81
*1144 FILLER_0_35_93
*1145 FILLER_0_36_109
*1146 FILLER_0_36_121
*1147 FILLER_0_36_133
*1148 FILLER_0_36_139
*1149 FILLER_0_36_141
*1150 FILLER_0_36_15
*1151 FILLER_0_36_153
*1152 FILLER_0_36_165
*1153 FILLER_0_36_177
*1154 FILLER_0_36_189
*1155 FILLER_0_36_195
*1156 FILLER_0_36_197
*1157 FILLER_0_36_209
*1158 FILLER_0_36_221
*1159 FILLER_0_36_233
*1160 FILLER_0_36_245
*1161 FILLER_0_36_251
*1162 FILLER_0_36_253
*1163 FILLER_0_36_265
*1164 FILLER_0_36_27
*1165 FILLER_0_36_277
*1166 FILLER_0_36_289
*1167 FILLER_0_36_29
*1168 FILLER_0_36_3
*1169 FILLER_0_36_301
*1170 FILLER_0_36_307
*1171 FILLER_0_36_309
*1172 FILLER_0_36_321
*1173 FILLER_0_36_333
*1174 FILLER_0_36_345
*1175 FILLER_0_36_41
*1176 FILLER_0_36_53
*1177 FILLER_0_36_65
*1178 FILLER_0_36_77
*1179 FILLER_0_36_83
*1180 FILLER_0_36_85
*1181 FILLER_0_36_97
*1182 FILLER_0_37_105
*1183 FILLER_0_37_111
*1184 FILLER_0_37_113
*1185 FILLER_0_37_125
*1186 FILLER_0_37_137
*1187 FILLER_0_37_149
*1188 FILLER_0_37_15
*1189 FILLER_0_37_161
*1190 FILLER_0_37_167
*1191 FILLER_0_37_169
*1192 FILLER_0_37_173
*1193 FILLER_0_37_180
*1194 FILLER_0_37_192
*1195 FILLER_0_37_204
*1196 FILLER_0_37_217
*1197 FILLER_0_37_223
*1198 FILLER_0_37_225
*1199 FILLER_0_37_237
*1200 FILLER_0_37_249
*1201 FILLER_0_37_261
*1202 FILLER_0_37_27
*1203 FILLER_0_37_273
*1204 FILLER_0_37_279
*1205 FILLER_0_37_281
*1206 FILLER_0_37_293
*1207 FILLER_0_37_3
*1208 FILLER_0_37_305
*1209 FILLER_0_37_317
*1210 FILLER_0_37_329
*1211 FILLER_0_37_335
*1212 FILLER_0_37_337
*1213 FILLER_0_37_349
*1214 FILLER_0_37_39
*1215 FILLER_0_37_51
*1216 FILLER_0_37_55
*1217 FILLER_0_37_57
*1218 FILLER_0_37_69
*1219 FILLER_0_37_81
*1220 FILLER_0_37_93
*1221 FILLER_0_38_104
*1222 FILLER_0_38_110
*1223 FILLER_0_38_116
*1224 FILLER_0_38_122
*1225 FILLER_0_38_128
*1226 FILLER_0_38_134
*1227 FILLER_0_38_141
*1228 FILLER_0_38_146
*1229 FILLER_0_38_15
*1230 FILLER_0_38_152
*1231 FILLER_0_38_158
*1232 FILLER_0_38_166
*1233 FILLER_0_38_169
*1234 FILLER_0_38_187
*1235 FILLER_0_38_195
*1236 FILLER_0_38_201
*1237 FILLER_0_38_225
*1238 FILLER_0_38_237
*1239 FILLER_0_38_249
*1240 FILLER_0_38_253
*1241 FILLER_0_38_260
*1242 FILLER_0_38_266
*1243 FILLER_0_38_27
*1244 FILLER_0_38_272
*1245 FILLER_0_38_278
*1246 FILLER_0_38_284
*1247 FILLER_0_38_29
*1248 FILLER_0_38_290
*1249 FILLER_0_38_296
*1250 FILLER_0_38_3
*1251 FILLER_0_38_302
*1252 FILLER_0_38_309
*1253 FILLER_0_38_321
*1254 FILLER_0_38_333
*1255 FILLER_0_38_337
*1256 FILLER_0_38_349
*1257 FILLER_0_38_41
*1258 FILLER_0_38_53
*1259 FILLER_0_38_57
*1260 FILLER_0_38_68
*1261 FILLER_0_38_74
*1262 FILLER_0_38_80
*1263 FILLER_0_38_88
*1264 FILLER_0_38_92
*1265 FILLER_0_38_98
*1266 FILLER_0_3_105
*1267 FILLER_0_3_111
*1268 FILLER_0_3_113
*1269 FILLER_0_3_125
*1270 FILLER_0_3_137
*1271 FILLER_0_3_149
*1272 FILLER_0_3_15
*1273 FILLER_0_3_161
*1274 FILLER_0_3_167
*1275 FILLER_0_3_169
*1276 FILLER_0_3_181
*1277 FILLER_0_3_193
*1278 FILLER_0_3_205
*1279 FILLER_0_3_217
*1280 FILLER_0_3_223
*1281 FILLER_0_3_225
*1282 FILLER_0_3_237
*1283 FILLER_0_3_249
*1284 FILLER_0_3_261
*1285 FILLER_0_3_27
*1286 FILLER_0_3_273
*1287 FILLER_0_3_279
*1288 FILLER_0_3_281
*1289 FILLER_0_3_293
*1290 FILLER_0_3_3
*1291 FILLER_0_3_305
*1292 FILLER_0_3_317
*1293 FILLER_0_3_329
*1294 FILLER_0_3_335
*1295 FILLER_0_3_337
*1296 FILLER_0_3_349
*1297 FILLER_0_3_39
*1298 FILLER_0_3_51
*1299 FILLER_0_3_55
*1300 FILLER_0_3_57
*1301 FILLER_0_3_69
*1302 FILLER_0_3_81
*1303 FILLER_0_3_93
*1304 FILLER_0_4_109
*1305 FILLER_0_4_121
*1306 FILLER_0_4_133
*1307 FILLER_0_4_139
*1308 FILLER_0_4_141
*1309 FILLER_0_4_15
*1310 FILLER_0_4_153
*1311 FILLER_0_4_165
*1312 FILLER_0_4_177
*1313 FILLER_0_4_189
*1314 FILLER_0_4_195
*1315 FILLER_0_4_197
*1316 FILLER_0_4_209
*1317 FILLER_0_4_221
*1318 FILLER_0_4_233
*1319 FILLER_0_4_245
*1320 FILLER_0_4_251
*1321 FILLER_0_4_253
*1322 FILLER_0_4_265
*1323 FILLER_0_4_27
*1324 FILLER_0_4_277
*1325 FILLER_0_4_289
*1326 FILLER_0_4_29
*1327 FILLER_0_4_3
*1328 FILLER_0_4_301
*1329 FILLER_0_4_307
*1330 FILLER_0_4_309
*1331 FILLER_0_4_321
*1332 FILLER_0_4_333
*1333 FILLER_0_4_345
*1334 FILLER_0_4_41
*1335 FILLER_0_4_53
*1336 FILLER_0_4_65
*1337 FILLER_0_4_77
*1338 FILLER_0_4_83
*1339 FILLER_0_4_85
*1340 FILLER_0_4_97
*1341 FILLER_0_5_105
*1342 FILLER_0_5_111
*1343 FILLER_0_5_113
*1344 FILLER_0_5_125
*1345 FILLER_0_5_137
*1346 FILLER_0_5_149
*1347 FILLER_0_5_15
*1348 FILLER_0_5_161
*1349 FILLER_0_5_167
*1350 FILLER_0_5_169
*1351 FILLER_0_5_181
*1352 FILLER_0_5_193
*1353 FILLER_0_5_205
*1354 FILLER_0_5_217
*1355 FILLER_0_5_223
*1356 FILLER_0_5_225
*1357 FILLER_0_5_237
*1358 FILLER_0_5_249
*1359 FILLER_0_5_261
*1360 FILLER_0_5_27
*1361 FILLER_0_5_273
*1362 FILLER_0_5_279
*1363 FILLER_0_5_281
*1364 FILLER_0_5_293
*1365 FILLER_0_5_3
*1366 FILLER_0_5_305
*1367 FILLER_0_5_317
*1368 FILLER_0_5_329
*1369 FILLER_0_5_335
*1370 FILLER_0_5_337
*1371 FILLER_0_5_349
*1372 FILLER_0_5_39
*1373 FILLER_0_5_51
*1374 FILLER_0_5_55
*1375 FILLER_0_5_57
*1376 FILLER_0_5_69
*1377 FILLER_0_5_81
*1378 FILLER_0_5_93
*1379 FILLER_0_6_109
*1380 FILLER_0_6_121
*1381 FILLER_0_6_133
*1382 FILLER_0_6_139
*1383 FILLER_0_6_141
*1384 FILLER_0_6_15
*1385 FILLER_0_6_153
*1386 FILLER_0_6_165
*1387 FILLER_0_6_177
*1388 FILLER_0_6_189
*1389 FILLER_0_6_195
*1390 FILLER_0_6_197
*1391 FILLER_0_6_209
*1392 FILLER_0_6_221
*1393 FILLER_0_6_233
*1394 FILLER_0_6_245
*1395 FILLER_0_6_251
*1396 FILLER_0_6_253
*1397 FILLER_0_6_265
*1398 FILLER_0_6_27
*1399 FILLER_0_6_277
*1400 FILLER_0_6_289
*1401 FILLER_0_6_29
*1402 FILLER_0_6_3
*1403 FILLER_0_6_301
*1404 FILLER_0_6_307
*1405 FILLER_0_6_309
*1406 FILLER_0_6_321
*1407 FILLER_0_6_333
*1408 FILLER_0_6_345
*1409 FILLER_0_6_41
*1410 FILLER_0_6_53
*1411 FILLER_0_6_65
*1412 FILLER_0_6_77
*1413 FILLER_0_6_83
*1414 FILLER_0_6_85
*1415 FILLER_0_6_97
*1416 FILLER_0_7_105
*1417 FILLER_0_7_111
*1418 FILLER_0_7_113
*1419 FILLER_0_7_125
*1420 FILLER_0_7_137
*1421 FILLER_0_7_149
*1422 FILLER_0_7_15
*1423 FILLER_0_7_161
*1424 FILLER_0_7_167
*1425 FILLER_0_7_169
*1426 FILLER_0_7_181
*1427 FILLER_0_7_193
*1428 FILLER_0_7_205
*1429 FILLER_0_7_217
*1430 FILLER_0_7_223
*1431 FILLER_0_7_225
*1432 FILLER_0_7_237
*1433 FILLER_0_7_249
*1434 FILLER_0_7_261
*1435 FILLER_0_7_27
*1436 FILLER_0_7_273
*1437 FILLER_0_7_279
*1438 FILLER_0_7_281
*1439 FILLER_0_7_293
*1440 FILLER_0_7_3
*1441 FILLER_0_7_305
*1442 FILLER_0_7_317
*1443 FILLER_0_7_329
*1444 FILLER_0_7_335
*1445 FILLER_0_7_337
*1446 FILLER_0_7_349
*1447 FILLER_0_7_39
*1448 FILLER_0_7_51
*1449 FILLER_0_7_55
*1450 FILLER_0_7_57
*1451 FILLER_0_7_69
*1452 FILLER_0_7_81
*1453 FILLER_0_7_93
*1454 FILLER_0_8_109
*1455 FILLER_0_8_121