*SPEF "ieee 1481-1999"
*DESIGN "tt_um_wokwi_380416099936681985"
*DATE "11:11:11 Fri 11 11, 1111"
*VENDOR "OpenRCX"
*PROGRAM "Parallel Extraction"
*VERSION "1.0"
*DESIGN_FLOW "NAME_SCOPE LOCAL" "PIN_CAP NONE"
*DIVIDER /
*DELIMITER :
*BUS_DELIMITER []
*T_UNIT 1 NS
*C_UNIT 1 PF
*R_UNIT 1 OHM
*L_UNIT 1 HENRY

*NAME_MAP
*3 clk
*4 ena
*5 rst_n
*6 ui_in[0]
*7 ui_in[1]
*8 ui_in[2]
*9 ui_in[3]
*10 ui_in[4]
*11 ui_in[5]
*12 ui_in[6]
*13 ui_in[7]
*14 uio_in[0]
*15 uio_in[1]
*16 uio_in[2]
*17 uio_in[3]
*18 uio_in[4]
*19 uio_in[5]
*20 uio_in[6]
*21 uio_in[7]
*22 net11
*23 net12
*24 net13
*25 net14
*26 net15
*27 net16
*28 net17
*29 net18
*30 uio_out[0]
*31 uio_out[1]
*32 uio_out[2]
*33 uio_out[3]
*34 uio_out[4]
*35 uio_out[5]
*36 uio_out[6]
*37 uio_out[7]
*38 uo_out[0]
*39 uo_out[1]
*40 uo_out[2]
*41 uo_out[3]
*42 uo_out[4]
*43 uo_out[5]
*44 uo_out[6]
*45 net10
*46 _000_
*47 _001_
*48 _002_
*49 _003_
*50 _004_
*51 _005_
*52 _006_
*53 _007_
*54 _008_
*55 _009_
*56 _010_
*57 _011_
*58 _012_
*59 _013_
*60 _014_
*61 _015_
*62 _016_
*63 _017_
*64 _018_
*65 _019_
*66 _020_
*67 _021_
*68 _022_
*69 _023_
*70 _024_
*71 _025_
*72 _026_
*73 _027_
*74 _028_
*75 _029_
*76 _030_
*77 _031_
*78 _032_
*79 _033_
*80 _034_
*81 _035_
*82 _036_
*83 _037_
*84 _038_
*85 _039_
*86 _040_
*87 _041_
*88 _042_
*89 _043_
*90 _044_
*91 _045_
*92 _046_
*93 _047_
*94 _048_
*95 _049_
*96 _050_
*97 _051_
*98 _052_
*99 _053_
*100 _054_
*101 _055_
*102 _056_
*103 _057_
*104 _058_
*105 _059_
*106 _060_
*107 _061_
*108 _062_
*109 _063_
*110 _064_
*111 _065_
*112 _066_
*113 _067_
*114 _068_
*115 _069_
*116 _070_
*117 _071_
*118 _072_
*119 _073_
*120 _074_
*121 _075_
*122 _076_
*123 _077_
*124 _078_
*125 _079_
*126 _080_
*127 _081_
*128 _082_
*129 _083_
*130 _084_
*131 _085_
*132 _086_
*133 _087_
*134 _088_
*135 _089_
*136 _090_
*137 _091_
*138 _092_
*139 _093_
*140 _094_
*141 _095_
*142 _096_
*143 _097_
*144 _098_
*145 _099_
*146 _100_
*147 _101_
*148 _102_
*149 _103_
*150 _104_
*151 _105_
*152 _106_
*153 _107_
*154 _108_
*155 _109_
*156 _110_
*157 _111_
*158 _112_
*159 _113_
*160 _114_
*161 _115_
*162 _116_
*163 _117_
*164 _118_
*165 _119_
*166 _120_
*167 _121_
*168 _122_
*169 _123_
*170 _124_
*171 _125_
*172 _126_
*173 _127_
*174 _128_
*175 _129_
*176 _130_
*177 _131_
*178 _132_
*179 _133_
*180 _134_
*181 _135_
*182 _136_
*183 _137_
*184 _138_
*185 _139_
*186 _140_
*187 _141_
*188 _142_
*189 _143_
*190 _144_
*191 _145_
*192 _146_
*193 _147_
*194 _148_
*195 _149_
*196 _150_
*197 _151_
*198 _152_
*199 _153_
*200 _154_
*201 _155_
*202 _156_
*203 _157_
*204 _158_
*205 _159_
*206 _160_
*207 _161_
*208 _162_
*209 _163_
*210 _164_
*211 _165_
*212 _166_
*213 _167_
*214 _168_
*215 clknet_0_clk
*216 clknet_2_0__leaf_clk
*217 clknet_2_1__leaf_clk
*218 clknet_2_2__leaf_clk
*219 clknet_2_3__leaf_clk
*220 net1
*221 net19
*222 net2
*223 net20
*224 net21
*225 net22
*226 net23
*227 net24
*228 net25
*229 net26
*230 net27
*231 net28
*232 net3
*233 net4
*234 net5
*235 net6
*236 net7
*237 net8
*238 net9
*239 second_counter\[0\]
*240 second_counter\[10\]
*241 second_counter\[11\]
*242 second_counter\[12\]
*243 second_counter\[13\]
*244 second_counter\[14\]
*245 second_counter\[15\]
*246 second_counter\[16\]
*247 second_counter\[17\]
*248 second_counter\[18\]
*249 second_counter\[19\]
*250 second_counter\[1\]
*251 second_counter\[20\]
*252 second_counter\[21\]
*253 second_counter\[22\]
*254 second_counter\[23\]
*255 second_counter\[2\]
*256 second_counter\[3\]
*257 second_counter\[4\]
*258 second_counter\[5\]
*259 second_counter\[6\]
*260 second_counter\[7\]
*261 second_counter\[8\]
*262 second_counter\[9\]
*263 seg7\.counter\[0\]
*264 seg7\.counter\[1\]
*265 seg7\.counter\[2\]
*266 seg7\.counter\[3\]
*267 FILLER_0_0_109
*268 FILLER_0_0_113
*269 FILLER_0_0_125
*270 FILLER_0_0_137
*271 FILLER_0_0_141
*272 FILLER_0_0_15
*273 FILLER_0_0_153
*274 FILLER_0_0_165
*275 FILLER_0_0_169
*276 FILLER_0_0_181
*277 FILLER_0_0_193
*278 FILLER_0_0_197
*279 FILLER_0_0_209
*280 FILLER_0_0_221
*281 FILLER_0_0_225
*282 FILLER_0_0_237
*283 FILLER_0_0_249
*284 FILLER_0_0_253
*285 FILLER_0_0_265
*286 FILLER_0_0_27
*287 FILLER_0_0_277
*288 FILLER_0_0_281
*289 FILLER_0_0_29
*290 FILLER_0_0_293
*291 FILLER_0_0_3
*292 FILLER_0_0_305
*293 FILLER_0_0_309
*294 FILLER_0_0_321
*295 FILLER_0_0_333
*296 FILLER_0_0_337
*297 FILLER_0_0_349
*298 FILLER_0_0_41
*299 FILLER_0_0_53
*300 FILLER_0_0_57
*301 FILLER_0_0_69
*302 FILLER_0_0_81
*303 FILLER_0_0_85
*304 FILLER_0_0_97
*305 FILLER_0_10_109
*306 FILLER_0_10_121
*307 FILLER_0_10_133
*308 FILLER_0_10_139
*309 FILLER_0_10_141
*310 FILLER_0_10_15
*311 FILLER_0_10_153
*312 FILLER_0_10_165
*313 FILLER_0_10_177
*314 FILLER_0_10_189
*315 FILLER_0_10_195
*316 FILLER_0_10_197
*317 FILLER_0_10_209
*318 FILLER_0_10_221
*319 FILLER_0_10_233
*320 FILLER_0_10_245
*321 FILLER_0_10_251
*322 FILLER_0_10_253
*323 FILLER_0_10_265
*324 FILLER_0_10_27
*325 FILLER_0_10_277
*326 FILLER_0_10_289
*327 FILLER_0_10_29
*328 FILLER_0_10_3
*329 FILLER_0_10_301
*330 FILLER_0_10_307
*331 FILLER_0_10_309
*332 FILLER_0_10_321
*333 FILLER_0_10_333
*334 FILLER_0_10_345
*335 FILLER_0_10_41
*336 FILLER_0_10_53
*337 FILLER_0_10_65
*338 FILLER_0_10_77
*339 FILLER_0_10_83
*340 FILLER_0_10_85
*341 FILLER_0_10_97
*342 FILLER_0_11_105
*343 FILLER_0_11_111
*344 FILLER_0_11_113
*345 FILLER_0_11_125
*346 FILLER_0_11_137
*347 FILLER_0_11_149
*348 FILLER_0_11_15
*349 FILLER_0_11_161
*350 FILLER_0_11_167
*351 FILLER_0_11_169
*352 FILLER_0_11_181
*353 FILLER_0_11_193
*354 FILLER_0_11_205
*355 FILLER_0_11_217
*356 FILLER_0_11_223
*357 FILLER_0_11_225
*358 FILLER_0_11_237
*359 FILLER_0_11_249
*360 FILLER_0_11_261
*361 FILLER_0_11_27
*362 FILLER_0_11_273
*363 FILLER_0_11_279
*364 FILLER_0_11_281
*365 FILLER_0_11_293
*366 FILLER_0_11_3
*367 FILLER_0_11_305
*368 FILLER_0_11_317
*369 FILLER_0_11_329
*370 FILLER_0_11_335
*371 FILLER_0_11_337
*372 FILLER_0_11_349
*373 FILLER_0_11_39
*374 FILLER_0_11_51
*375 FILLER_0_11_55
*376 FILLER_0_11_57
*377 FILLER_0_11_69
*378 FILLER_0_11_81
*379 FILLER_0_11_93
*380 FILLER_0_12_109
*381 FILLER_0_12_121
*382 FILLER_0_12_133
*383 FILLER_0_12_139
*384 FILLER_0_12_141
*385 FILLER_0_12_15
*386 FILLER_0_12_153
*387 FILLER_0_12_165
*388 FILLER_0_12_177
*389 FILLER_0_12_189
*390 FILLER_0_12_195
*391 FILLER_0_12_197
*392 FILLER_0_12_209
*393 FILLER_0_12_221
*394 FILLER_0_12_233
*395 FILLER_0_12_245
*396 FILLER_0_12_251
*397 FILLER_0_12_253
*398 FILLER_0_12_265
*399 FILLER_0_12_27
*400 FILLER_0_12_277
*401 FILLER_0_12_289
*402 FILLER_0_12_29
*403 FILLER_0_12_3
*404 FILLER_0_12_301
*405 FILLER_0_12_307
*406 FILLER_0_12_309
*407 FILLER_0_12_321
*408 FILLER_0_12_333
*409 FILLER_0_12_345
*410 FILLER_0_12_41
*411 FILLER_0_12_53
*412 FILLER_0_12_65
*413 FILLER_0_12_77
*414 FILLER_0_12_83
*415 FILLER_0_12_85
*416 FILLER_0_12_97
*417 FILLER_0_13_105
*418 FILLER_0_13_111
*419 FILLER_0_13_113
*420 FILLER_0_13_125
*421 FILLER_0_13_137
*422 FILLER_0_13_149
*423 FILLER_0_13_15
*424 FILLER_0_13_161
*425 FILLER_0_13_167
*426 FILLER_0_13_169
*427 FILLER_0_13_181
*428 FILLER_0_13_193
*429 FILLER_0_13_205
*430 FILLER_0_13_217
*431 FILLER_0_13_223
*432 FILLER_0_13_225
*433 FILLER_0_13_237
*434 FILLER_0_13_249
*435 FILLER_0_13_261
*436 FILLER_0_13_27
*437 FILLER_0_13_273
*438 FILLER_0_13_279
*439 FILLER_0_13_281
*440 FILLER_0_13_293
*441 FILLER_0_13_3
*442 FILLER_0_13_305
*443 FILLER_0_13_317
*444 FILLER_0_13_329
*445 FILLER_0_13_335
*446 FILLER_0_13_337
*447 FILLER_0_13_349
*448 FILLER_0_13_39
*449 FILLER_0_13_51
*450 FILLER_0_13_55
*451 FILLER_0_13_57
*452 FILLER_0_13_69
*453 FILLER_0_13_81
*454 FILLER_0_13_93
*455 FILLER_0_14_109
*456 FILLER_0_14_121
*457 FILLER_0_14_133
*458 FILLER_0_14_139
*459 FILLER_0_14_141
*460 FILLER_0_14_15
*461 FILLER_0_14_153
*462 FILLER_0_14_165
*463 FILLER_0_14_177
*464 FILLER_0_14_189
*465 FILLER_0_14_195
*466 FILLER_0_14_197
*467 FILLER_0_14_209
*468 FILLER_0_14_221
*469 FILLER_0_14_233
*470 FILLER_0_14_245
*471 FILLER_0_14_251
*472 FILLER_0_14_253
*473 FILLER_0_14_265
*474 FILLER_0_14_27
*475 FILLER_0_14_277
*476 FILLER_0_14_289
*477 FILLER_0_14_29
*478 FILLER_0_14_3
*479 FILLER_0_14_301
*480 FILLER_0_14_307
*481 FILLER_0_14_309
*482 FILLER_0_14_321
*483 FILLER_0_14_333
*484 FILLER_0_14_345
*485 FILLER_0_14_41
*486 FILLER_0_14_53
*487 FILLER_0_14_65
*488 FILLER_0_14_77
*489 FILLER_0_14_83
*490 FILLER_0_14_85
*491 FILLER_0_14_97
*492 FILLER_0_15_105
*493 FILLER_0_15_111
*494 FILLER_0_15_113
*495 FILLER_0_15_125
*496 FILLER_0_15_137
*497 FILLER_0_15_149
*498 FILLER_0_15_15
*499 FILLER_0_15_161
*500 FILLER_0_15_167
*501 FILLER_0_15_169
*502 FILLER_0_15_181
*503 FILLER_0_15_193
*504 FILLER_0_15_205
*505 FILLER_0_15_217
*506 FILLER_0_15_223
*507 FILLER_0_15_225
*508 FILLER_0_15_237
*509 FILLER_0_15_249
*510 FILLER_0_15_261
*511 FILLER_0_15_27
*512 FILLER_0_15_273
*513 FILLER_0_15_279
*514 FILLER_0_15_281
*515 FILLER_0_15_293
*516 FILLER_0_15_3
*517 FILLER_0_15_305
*518 FILLER_0_15_317
*519 FILLER_0_15_329
*520 FILLER_0_15_335
*521 FILLER_0_15_337
*522 FILLER_0_15_349
*523 FILLER_0_15_39
*524 FILLER_0_15_51
*525 FILLER_0_15_55
*526 FILLER_0_15_57
*527 FILLER_0_15_69
*528 FILLER_0_15_81
*529 FILLER_0_15_93
*530 FILLER_0_16_109
*531 FILLER_0_16_121
*532 FILLER_0_16_133
*533 FILLER_0_16_139
*534 FILLER_0_16_141
*535 FILLER_0_16_15
*536 FILLER_0_16_153
*537 FILLER_0_16_165
*538 FILLER_0_16_177
*539 FILLER_0_16_189
*540 FILLER_0_16_195
*541 FILLER_0_16_197
*542 FILLER_0_16_209
*543 FILLER_0_16_221
*544 FILLER_0_16_233
*545 FILLER_0_16_245
*546 FILLER_0_16_251
*547 FILLER_0_16_253
*548 FILLER_0_16_265
*549 FILLER_0_16_27
*550 FILLER_0_16_277
*551 FILLER_0_16_289
*552 FILLER_0_16_29
*553 FILLER_0_16_3
*554 FILLER_0_16_301
*555 FILLER_0_16_307
*556 FILLER_0_16_309
*557 FILLER_0_16_321
*558 FILLER_0_16_333
*559 FILLER_0_16_345
*560 FILLER_0_16_41
*561 FILLER_0_16_53
*562 FILLER_0_16_65
*563 FILLER_0_16_77
*564 FILLER_0_16_83
*565 FILLER_0_16_85
*566 FILLER_0_16_97
*567 FILLER_0_17_105
*568 FILLER_0_17_111
*569 FILLER_0_17_113
*570 FILLER_0_17_125
*571 FILLER_0_17_137
*572 FILLER_0_17_149
*573 FILLER_0_17_15
*574 FILLER_0_17_161
*575 FILLER_0_17_167
*576 FILLER_0_17_169
*577 FILLER_0_17_181
*578 FILLER_0_17_193
*579 FILLER_0_17_205
*580 FILLER_0_17_217
*581 FILLER_0_17_223
*582 FILLER_0_17_225
*583 FILLER_0_17_237
*584 FILLER_0_17_249
*585 FILLER_0_17_261
*586 FILLER_0_17_27
*587 FILLER_0_17_273
*588 FILLER_0_17_279
*589 FILLER_0_17_281
*590 FILLER_0_17_293
*591 FILLER_0_17_3
*592 FILLER_0_17_305
*593 FILLER_0_17_317
*594 FILLER_0_17_329
*595 FILLER_0_17_335
*596 FILLER_0_17_337
*597 FILLER_0_17_349
*598 FILLER_0_17_39
*599 FILLER_0_17_51
*600 FILLER_0_17_55
*601 FILLER_0_17_57
*602 FILLER_0_17_69
*603 FILLER_0_17_81
*604 FILLER_0_17_93
*605 FILLER_0_18_109
*606 FILLER_0_18_121
*607 FILLER_0_18_133
*608 FILLER_0_18_139
*609 FILLER_0_18_141
*610 FILLER_0_18_15
*611 FILLER_0_18_153
*612 FILLER_0_18_165
*613 FILLER_0_18_177
*614 FILLER_0_18_189
*615 FILLER_0_18_195
*616 FILLER_0_18_197
*617 FILLER_0_18_209
*618 FILLER_0_18_221
*619 FILLER_0_18_233
*620 FILLER_0_18_245
*621 FILLER_0_18_251
*622 FILLER_0_18_253
*623 FILLER_0_18_265
*624 FILLER_0_18_27
*625 FILLER_0_18_277
*626 FILLER_0_18_289
*627 FILLER_0_18_29
*628 FILLER_0_18_3
*629 FILLER_0_18_301
*630 FILLER_0_18_307
*631 FILLER_0_18_309
*632 FILLER_0_18_321
*633 FILLER_0_18_333
*634 FILLER_0_18_345
*635 FILLER_0_18_41
*636 FILLER_0_18_53
*637 FILLER_0_18_65
*638 FILLER_0_18_77
*639 FILLER_0_18_83
*640 FILLER_0_18_85
*641 FILLER_0_18_97
*642 FILLER_0_19_105
*643 FILLER_0_19_111
*644 FILLER_0_19_113
*645 FILLER_0_19_125
*646 FILLER_0_19_137
*647 FILLER_0_19_149
*648 FILLER_0_19_15
*649 FILLER_0_19_161
*650 FILLER_0_19_167
*651 FILLER_0_19_169
*652 FILLER_0_19_181
*653 FILLER_0_19_193
*654 FILLER_0_19_205
*655 FILLER_0_19_217
*656 FILLER_0_19_223
*657 FILLER_0_19_225
*658 FILLER_0_19_237
*659 FILLER_0_19_249
*660 FILLER_0_19_261
*661 FILLER_0_19_27
*662 FILLER_0_19_273
*663 FILLER_0_19_279
*664 FILLER_0_19_281
*665 FILLER_0_19_293
*666 FILLER_0_19_3
*667 FILLER_0_19_305
*668 FILLER_0_19_317
*669 FILLER_0_19_329
*670 FILLER_0_19_335
*671 FILLER_0_19_337
*672 FILLER_0_19_349
*673 FILLER_0_19_39
*674 FILLER_0_19_51
*675 FILLER_0_19_55
*676 FILLER_0_19_57
*677 FILLER_0_19_69
*678 FILLER_0_19_81
*679 FILLER_0_19_93
*680 FILLER_0_1_105
*681 FILLER_0_1_111
*682 FILLER_0_1_113
*683 FILLER_0_1_125
*684 FILLER_0_1_137
*685 FILLER_0_1_149
*686 FILLER_0_1_15
*687 FILLER_0_1_161
*688 FILLER_0_1_167
*689 FILLER_0_1_169
*690 FILLER_0_1_181
*691 FILLER_0_1_193
*692 FILLER_0_1_205
*693 FILLER_0_1_217
*694 FILLER_0_1_223
*695 FILLER_0_1_225
*696 FILLER_0_1_237
*697 FILLER_0_1_249
*698 FILLER_0_1_261
*699 FILLER_0_1_27
*700 FILLER_0_1_273
*701 FILLER_0_1_279
*702 FILLER_0_1_281
*703 FILLER_0_1_293
*704 FILLER_0_1_3
*705 FILLER_0_1_305
*706 FILLER_0_1_317
*707 FILLER_0_1_329
*708 FILLER_0_1_335
*709 FILLER_0_1_337
*710 FILLER_0_1_349
*711 FILLER_0_1_39
*712 FILLER_0_1_51
*713 FILLER_0_1_55
*714 FILLER_0_1_57
*715 FILLER_0_1_69
*716 FILLER_0_1_81
*717 FILLER_0_1_93
*718 FILLER_0_20_109
*719 FILLER_0_20_121
*720 FILLER_0_20_133
*721 FILLER_0_20_139
*722 FILLER_0_20_141
*723 FILLER_0_20_15
*724 FILLER_0_20_153
*725 FILLER_0_20_165
*726 FILLER_0_20_177
*727 FILLER_0_20_189
*728 FILLER_0_20_195
*729 FILLER_0_20_197
*730 FILLER_0_20_209
*731 FILLER_0_20_221
*732 FILLER_0_20_233
*733 FILLER_0_20_245
*734 FILLER_0_20_251
*735 FILLER_0_20_253
*736 FILLER_0_20_265
*737 FILLER_0_20_27
*738 FILLER_0_20_277
*739 FILLER_0_20_289
*740 FILLER_0_20_29
*741 FILLER_0_20_3
*742 FILLER_0_20_301
*743 FILLER_0_20_307
*744 FILLER_0_20_309
*745 FILLER_0_20_321
*746 FILLER_0_20_333
*747 FILLER_0_20_345
*748 FILLER_0_20_41
*749 FILLER_0_20_53
*750 FILLER_0_20_65
*751 FILLER_0_20_77
*752 FILLER_0_20_83
*753 FILLER_0_20_85
*754 FILLER_0_20_97
*755 FILLER_0_21_105
*756 FILLER_0_21_111
*757 FILLER_0_21_113
*758 FILLER_0_21_125
*759 FILLER_0_21_137
*760 FILLER_0_21_149
*761 FILLER_0_21_15
*762 FILLER_0_21_161
*763 FILLER_0_21_167
*764 FILLER_0_21_169
*765 FILLER_0_21_181
*766 FILLER_0_21_193
*767 FILLER_0_21_205
*768 FILLER_0_21_217
*769 FILLER_0_21_223
*770 FILLER_0_21_225
*771 FILLER_0_21_237
*772 FILLER_0_21_249
*773 FILLER_0_21_261
*774 FILLER_0_21_27
*775 FILLER_0_21_273
*776 FILLER_0_21_279
*777 FILLER_0_21_281
*778 FILLER_0_21_293
*779 FILLER_0_21_3
*780 FILLER_0_21_305
*781 FILLER_0_21_317
*782 FILLER_0_21_329
*783 FILLER_0_21_335
*784 FILLER_0_21_337
*785 FILLER_0_21_349
*786 FILLER_0_21_39
*787 FILLER_0_21_51
*788 FILLER_0_21_55
*789 FILLER_0_21_57
*790 FILLER_0_21_69
*791 FILLER_0_21_81
*792 FILLER_0_21_93
*793 FILLER_0_22_109
*794 FILLER_0_22_121
*795 FILLER_0_22_133
*796 FILLER_0_22_139
*797 FILLER_0_22_141
*798 FILLER_0_22_15
*799 FILLER_0_22_153
*800 FILLER_0_22_165
*801 FILLER_0_22_177
*802 FILLER_0_22_189
*803 FILLER_0_22_195
*804 FILLER_0_22_197
*805 FILLER_0_22_209
*806 FILLER_0_22_221
*807 FILLER_0_22_233
*808 FILLER_0_22_245
*809 FILLER_0_22_251
*810 FILLER_0_22_253
*811 FILLER_0_22_265
*812 FILLER_0_22_27
*813 FILLER_0_22_277
*814 FILLER_0_22_289
*815 FILLER_0_22_29
*816 FILLER_0_22_3
*817 FILLER_0_22_301
*818 FILLER_0_22_307
*819 FILLER_0_22_309
*820 FILLER_0_22_321
*821 FILLER_0_22_333
*822 FILLER_0_22_345
*823 FILLER_0_22_41
*824 FILLER_0_22_53
*825 FILLER_0_22_65
*826 FILLER_0_22_77
*827 FILLER_0_22_83
*828 FILLER_0_22_85
*829 FILLER_0_22_97
*830 FILLER_0_23_105
*831 FILLER_0_23_111
*832 FILLER_0_23_113
*833 FILLER_0_23_125
*834 FILLER_0_23_137
*835 FILLER_0_23_149
*836 FILLER_0_23_15
*837 FILLER_0_23_161
*838 FILLER_0_23_167
*839 FILLER_0_23_169
*840 FILLER_0_23_181
*841 FILLER_0_23_193
*842 FILLER_0_23_205
*843 FILLER_0_23_217
*844 FILLER_0_23_223
*845 FILLER_0_23_225
*846 FILLER_0_23_237
*847 FILLER_0_23_249
*848 FILLER_0_23_261
*849 FILLER_0_23_27
*850 FILLER_0_23_273
*851 FILLER_0_23_279
*852 FILLER_0_23_281
*853 FILLER_0_23_293
*854 FILLER_0_23_3
*855 FILLER_0_23_305
*856 FILLER_0_23_317
*857 FILLER_0_23_329
*858 FILLER_0_23_335
*859 FILLER_0_23_337
*860 FILLER_0_23_349
*861 FILLER_0_23_39
*862 FILLER_0_23_51
*863 FILLER_0_23_55
*864 FILLER_0_23_57
*865 FILLER_0_23_69
*866 FILLER_0_23_81
*867 FILLER_0_23_93
*868 FILLER_0_24_109
*869 FILLER_0_24_121
*870 FILLER_0_24_133
*871 FILLER_0_24_139
*872 FILLER_0_24_141
*873 FILLER_0_24_15
*874 FILLER_0_24_153
*875 FILLER_0_24_165
*876 FILLER_0_24_177
*877 FILLER_0_24_189
*878 FILLER_0_24_195
*879 FILLER_0_24_197
*880 FILLER_0_24_209
*881 FILLER_0_24_221
*882 FILLER_0_24_233
*883 FILLER_0_24_245
*884 FILLER_0_24_251
*885 FILLER_0_24_253
*886 FILLER_0_24_259
*887 FILLER_0_24_27
*888 FILLER_0_24_280
*889 FILLER_0_24_29
*890 FILLER_0_24_292
*891 FILLER_0_24_3
*892 FILLER_0_24_304
*893 FILLER_0_24_309
*894 FILLER_0_24_321
*895 FILLER_0_24_333
*896 FILLER_0_24_345
*897 FILLER_0_24_41
*898 FILLER_0_24_53
*899 FILLER_0_24_65
*900 FILLER_0_24_77
*901 FILLER_0_24_83
*902 FILLER_0_24_85
*903 FILLER_0_24_97
*904 FILLER_0_25_105
*905 FILLER_0_25_111
*906 FILLER_0_25_113
*907 FILLER_0_25_125
*908 FILLER_0_25_137
*909 FILLER_0_25_149
*910 FILLER_0_25_15
*911 FILLER_0_25_161
*912 FILLER_0_25_167
*913 FILLER_0_25_169
*914 FILLER_0_25_181
*915 FILLER_0_25_193
*916 FILLER_0_25_205
*917 FILLER_0_25_217
*918 FILLER_0_25_223
*919 FILLER_0_25_225
*920 FILLER_0_25_237
*921 FILLER_0_25_249
*922 FILLER_0_25_261
*923 FILLER_0_25_27
*924 FILLER_0_25_273
*925 FILLER_0_25_279
*926 FILLER_0_25_281
*927 FILLER_0_25_293
*928 FILLER_0_25_3
*929 FILLER_0_25_305
*930 FILLER_0_25_317
*931 FILLER_0_25_329
*932 FILLER_0_25_335
*933 FILLER_0_25_337
*934 FILLER_0_25_349
*935 FILLER_0_25_39
*936 FILLER_0_25_51
*937 FILLER_0_25_55
*938 FILLER_0_25_57
*939 FILLER_0_25_69
*940 FILLER_0_25_81
*941 FILLER_0_25_93
*942 FILLER_0_26_109
*943 FILLER_0_26_121
*944 FILLER_0_26_133
*945 FILLER_0_26_139
*946 FILLER_0_26_141
*947 FILLER_0_26_15
*948 FILLER_0_26_153
*949 FILLER_0_26_165
*950 FILLER_0_26_177
*951 FILLER_0_26_189
*952 FILLER_0_26_195
*953 FILLER_0_26_197
*954 FILLER_0_26_209
*955 FILLER_0_26_221
*956 FILLER_0_26_233
*957 FILLER_0_26_245
*958 FILLER_0_26_251
*959 FILLER_0_26_253
*960 FILLER_0_26_265
*961 FILLER_0_26_27
*962 FILLER_0_26_283
*963 FILLER_0_26_29
*964 FILLER_0_26_291
*965 FILLER_0_26_3
*966 FILLER_0_26_309
*967 FILLER_0_26_321
*968 FILLER_0_26_333
*969 FILLER_0_26_345
*970 FILLER_0_26_41
*971 FILLER_0_26_53
*972 FILLER_0_26_65
*973 FILLER_0_26_77
*974 FILLER_0_26_83
*975 FILLER_0_26_85
*976 FILLER_0_26_97
*977 FILLER_0_27_105
*978 FILLER_0_27_111
*979 FILLER_0_27_113
*980 FILLER_0_27_125
*981 FILLER_0_27_137
*982 FILLER_0_27_143
*983 FILLER_0_27_147
*984 FILLER_0_27_15
*985 FILLER_0_27_159
*986 FILLER_0_27_167
*987 FILLER_0_27_169
*988 FILLER_0_27_181
*989 FILLER_0_27_193
*990 FILLER_0_27_205
*991 FILLER_0_27_217
*992 FILLER_0_27_223
*993 FILLER_0_27_242
*994 FILLER_0_27_265
*995 FILLER_0_27_27
*996 FILLER_0_27_273
*997 FILLER_0_27_281
*998 FILLER_0_27_291
*999 FILLER_0_27_298
*1000 FILLER_0_27_3
*1001 FILLER_0_27_310
*1002 FILLER_0_27_330
*1003 FILLER_0_27_337
*1004 FILLER_0_27_349
*1005 FILLER_0_27_39
*1006 FILLER_0_27_51
*1007 FILLER_0_27_55
*1008 FILLER_0_27_57
*1009 FILLER_0_27_69
*1010 FILLER_0_27_81
*1011 FILLER_0_27_93
*1012 FILLER_0_28_109
*1013 FILLER_0_28_124
*1014 FILLER_0_28_136
*1015 FILLER_0_28_15
*1016 FILLER_0_28_165
*1017 FILLER_0_28_177
*1018 FILLER_0_28_189
*1019 FILLER_0_28_195
*1020 FILLER_0_28_197
*1021 FILLER_0_28_209
*1022 FILLER_0_28_220
*1023 FILLER_0_28_234
*1024 FILLER_0_28_250
*1025 FILLER_0_28_253
*1026 FILLER_0_28_261
*1027 FILLER_0_28_268
*1028 FILLER_0_28_27
*1029 FILLER_0_28_277
*1030 FILLER_0_28_281
*1031 FILLER_0_28_286
*1032 FILLER_0_28_29
*1033 FILLER_0_28_290
*1034 FILLER_0_28_3
*1035 FILLER_0_28_304
*1036 FILLER_0_28_314
*1037 FILLER_0_28_322
*1038 FILLER_0_28_333
*1039 FILLER_0_28_41
*1040 FILLER_0_28_53
*1041 FILLER_0_28_65
*1042 FILLER_0_28_77
*1043 FILLER_0_28_83
*1044 FILLER_0_28_85
*1045 FILLER_0_28_97
*1046 FILLER_0_29_105
*1047 FILLER_0_29_111
*1048 FILLER_0_29_113
*1049 FILLER_0_29_135
*1050 FILLER_0_29_141
*1051 FILLER_0_29_15
*1052 FILLER_0_29_167
*1053 FILLER_0_29_169
*1054 FILLER_0_29_177
*1055 FILLER_0_29_195
*1056 FILLER_0_29_214
*1057 FILLER_0_29_222
*1058 FILLER_0_29_233
*1059 FILLER_0_29_257
*1060 FILLER_0_29_27
*1061 FILLER_0_29_277
*1062 FILLER_0_29_281
*1063 FILLER_0_29_288
*1064 FILLER_0_29_294
*1065 FILLER_0_29_3
*1066 FILLER_0_29_300
*1067 FILLER_0_29_312
*1068 FILLER_0_29_320
*1069 FILLER_0_29_39
*1070 FILLER_0_29_51
*1071 FILLER_0_29_55
*1072 FILLER_0_29_57
*1073 FILLER_0_29_69
*1074 FILLER_0_29_81
*1075 FILLER_0_29_93
*1076 FILLER_0_2_109
*1077 FILLER_0_2_121
*1078 FILLER_0_2_133
*1079 FILLER_0_2_139
*1080 FILLER_0_2_141
*1081 FILLER_0_2_15
*1082 FILLER_0_2_153
*1083 FILLER_0_2_165
*1084 FILLER_0_2_177
*1085 FILLER_0_2_189
*1086 FILLER_0_2_195
*1087 FILLER_0_2_197
*1088 FILLER_0_2_209
*1089 FILLER_0_2_221
*1090 FILLER_0_2_233
*1091 FILLER_0_2_245
*1092 FILLER_0_2_251
*1093 FILLER_0_2_253
*1094 FILLER_0_2_265
*1095 FILLER_0_2_27
*1096 FILLER_0_2_277
*1097 FILLER_0_2_289
*1098 FILLER_0_2_29
*1099 FILLER_0_2_3
*1100 FILLER_0_2_301
*1101 FILLER_0_2_307
*1102 FILLER_0_2_309
*1103 FILLER_0_2_321
*1104 FILLER_0_2_333
*1105 FILLER_0_2_345
*1106 FILLER_0_2_41
*1107 FILLER_0_2_53
*1108 FILLER_0_2_65
*1109 FILLER_0_2_77
*1110 FILLER_0_2_83
*1111 FILLER_0_2_85
*1112 FILLER_0_2_97
*1113 FILLER_0_30_104
*1114 FILLER_0_30_116
*1115 FILLER_0_30_127
*1116 FILLER_0_30_147
*1117 FILLER_0_30_15
*1118 FILLER_0_30_155
*1119 FILLER_0_30_185
*1120 FILLER_0_30_195
*1121 FILLER_0_30_197
*1122 FILLER_0_30_208
*1123 FILLER_0_30_216
*1124 FILLER_0_30_234
*1125 FILLER_0_30_243
*1126 FILLER_0_30_251
*1127 FILLER_0_30_253
*1128 FILLER_0_30_267
*1129 FILLER_0_30_27
*1130 FILLER_0_30_279
*1131 FILLER_0_30_29
*1132 FILLER_0_30_295
*1133 FILLER_0_30_3
*1134 FILLER_0_30_307
*1135 FILLER_0_30_323
*1136 FILLER_0_30_349
*1137 FILLER_0_30_41
*1138 FILLER_0_30_53
*1139 FILLER_0_30_65
*1140 FILLER_0_30_77
*1141 FILLER_0_30_83
*1142 FILLER_0_30_85
*1143 FILLER_0_30_97
*1144 FILLER_0_31_113
*1145 FILLER_0_31_128
*1146 FILLER_0_31_140
*1147 FILLER_0_31_15
*1148 FILLER_0_31_167
*1149 FILLER_0_31_169
*1150 FILLER_0_31_177
*1151 FILLER_0_31_186
*1152 FILLER_0_31_199
*1153 FILLER_0_31_215
*1154 FILLER_0_31_223
*1155 FILLER_0_31_239
*1156 FILLER_0_31_243
*1157 FILLER_0_31_27
*1158 FILLER_0_31_275
*1159 FILLER_0_31_279
*1160 FILLER_0_31_281
*1161 FILLER_0_31_285
*1162 FILLER_0_31_297
*1163 FILLER_0_31_3
*1164 FILLER_0_31_319
*1165 FILLER_0_31_330
*1166 FILLER_0_31_337
*1167 FILLER_0_31_347
*1168 FILLER_0_31_39
*1169 FILLER_0_31_51
*1170 FILLER_0_31_55
*1171 FILLER_0_31_57
*1172 FILLER_0_31_69
*1173 FILLER_0_31_81
*1174 FILLER_0_31_93
*1175 FILLER_0_32_109
*1176 FILLER_0_32_117
*1177 FILLER_0_32_15
*1178 FILLER_0_32_156
*1179 FILLER_0_32_164
*1180 FILLER_0_32_176
*1181 FILLER_0_32_188
*1182 FILLER_0_32_197
*1183 FILLER_0_32_201
*1184 FILLER_0_32_243
*1185 FILLER_0_32_249
*1186 FILLER_0_32_258
*1187 FILLER_0_32_27
*1188 FILLER_0_32_281
*1189 FILLER_0_32_29
*1190 FILLER_0_32_298
*1191 FILLER_0_32_3
*1192 FILLER_0_32_306
*1193 FILLER_0_32_313
*1194 FILLER_0_32_321
*1195 FILLER_0_32_330
*1196 FILLER_0_32_41
*1197 FILLER_0_32_53
*1198 FILLER_0_32_65
*1199 FILLER_0_32_77
*1200 FILLER_0_32_83
*1201 FILLER_0_32_85
*1202 FILLER_0_32_97
*1203 FILLER_0_33_101
*1204 FILLER_0_33_109
*1205 FILLER_0_33_113
*1206 FILLER_0_33_121
*1207 FILLER_0_33_130
*1208 FILLER_0_33_147
*1209 FILLER_0_33_15
*1210 FILLER_0_33_155
*1211 FILLER_0_33_174
*1212 FILLER_0_33_196
*1213 FILLER_0_33_200
*1214 FILLER_0_33_206
*1215 FILLER_0_33_218
*1216 FILLER_0_33_232
*1217 FILLER_0_33_244
*1218 FILLER_0_33_253
*1219 FILLER_0_33_263
*1220 FILLER_0_33_27
*1221 FILLER_0_33_273
*1222 FILLER_0_33_279
*1223 FILLER_0_33_281
*1224 FILLER_0_33_293
*1225 FILLER_0_33_3
*1226 FILLER_0_33_305
*1227 FILLER_0_33_314
*1228 FILLER_0_33_318
*1229 FILLER_0_33_333
*1230 FILLER_0_33_337
*1231 FILLER_0_33_349
*1232 FILLER_0_33_39
*1233 FILLER_0_33_51
*1234 FILLER_0_33_55
*1235 FILLER_0_33_57
*1236 FILLER_0_33_69
*1237 FILLER_0_33_81
*1238 FILLER_0_33_93
*1239 FILLER_0_33_97
*1240 FILLER_0_34_114
*1241 FILLER_0_34_123
*1242 FILLER_0_34_135
*1243 FILLER_0_34_139
*1244 FILLER_0_34_141
*1245 FILLER_0_34_15
*1246 FILLER_0_34_181
*1247 FILLER_0_34_193
*1248 FILLER_0_34_197
*1249 FILLER_0_34_204
*1250 FILLER_0_34_210
*1251 FILLER_0_34_224
*1252 FILLER_0_34_232
*1253 FILLER_0_34_251
*1254 FILLER_0_34_259
*1255 FILLER_0_34_27
*1256 FILLER_0_34_29
*1257 FILLER_0_34_295
*1258 FILLER_0_34_3
*1259 FILLER_0_34_306
*1260 FILLER_0_34_309
*1261 FILLER_0_34_317
*1262 FILLER_0_34_321
*1263 FILLER_0_34_326
*1264 FILLER_0_34_334
*1265 FILLER_0_34_41
*1266 FILLER_0_34_53
*1267 FILLER_0_34_65
*1268 FILLER_0_34_77
*1269 FILLER_0_34_83
*1270 FILLER_0_34_85
*1271 FILLER_0_35_101
*1272 FILLER_0_35_109
*1273 FILLER_0_35_113
*1274 FILLER_0_35_133
*1275 FILLER_0_35_15
*1276 FILLER_0_35_150
*1277 FILLER_0_35_165
*1278 FILLER_0_35_169
*1279 FILLER_0_35_181
*1280 FILLER_0_35_192
*1281 FILLER_0_35_197
*1282 FILLER_0_35_211
*1283 FILLER_0_35_215
*1284 FILLER_0_35_232
*1285 FILLER_0_35_240
*1286 FILLER_0_35_257
*1287 FILLER_0_35_27
*1288 FILLER_0_35_275
*1289 FILLER_0_35_279
*1290 FILLER_0_35_288
*1291 FILLER_0_35_3
*1292 FILLER_0_35_300
*1293 FILLER_0_35_323
*1294 FILLER_0_35_334
*1295 FILLER_0_35_340
*1296 FILLER_0_35_349
*1297 FILLER_0_35_39
*1298 FILLER_0_35_51
*1299 FILLER_0_35_55
*1300 FILLER_0_35_57
*1301 FILLER_0_35_69
*1302 FILLER_0_35_81
*1303 FILLER_0_35_93
*1304 FILLER_0_36_109
*1305 FILLER_0_36_117
*1306 FILLER_0_36_122
*1307 FILLER_0_36_134
*1308 FILLER_0_36_146
*1309 FILLER_0_36_15
*1310 FILLER_0_36_174
*1311 FILLER_0_36_178
*1312 FILLER_0_36_188
*1313 FILLER_0_36_197
*1314 FILLER_0_36_201
*1315 FILLER_0_36_213
*1316 FILLER_0_36_225
*1317 FILLER_0_36_237
*1318 FILLER_0_36_247
*1319 FILLER_0_36_251
*1320 FILLER_0_36_253
*1321 FILLER_0_36_269
*1322 FILLER_0_36_27
*1323 FILLER_0_36_281
*1324 FILLER_0_36_29
*1325 FILLER_0_36_298
*1326 FILLER_0_36_3
*1327 FILLER_0_36_306
*1328 FILLER_0_36_309
*1329 FILLER_0_36_321
*1330 FILLER_0_36_337
*1331 FILLER_0_36_349
*1332 FILLER_0_36_41
*1333 FILLER_0_36_53
*1334 FILLER_0_36_65
*1335 FILLER_0_36_77
*1336 FILLER_0_36_83
*1337 FILLER_0_36_85
*1338 FILLER_0_36_97
*1339 FILLER_0_37_110
*1340 FILLER_0_37_113
*1341 FILLER_0_37_131
*1342 FILLER_0_37_140
*1343 FILLER_0_37_144
*1344 FILLER_0_37_15
*1345 FILLER_0_37_153
*1346 FILLER_0_37_164
*1347 FILLER_0_37_169
*1348 FILLER_0_37_201
*1349 FILLER_0_37_225
*1350 FILLER_0_37_237
*1351 FILLER_0_37_257
*1352 FILLER_0_37_269
*1353 FILLER_0_37_27
*1354 FILLER_0_37_278
*1355 FILLER_0_37_281
*1356 FILLER_0_37_3
*1357 FILLER_0_37_301
*1358 FILLER_0_37_328
*1359 FILLER_0_37_332
*1360 FILLER_0_37_337
*1361 FILLER_0_37_349
*1362 FILLER_0_37_39
*1363 FILLER_0_37_51
*1364 FILLER_0_37_55
*1365 FILLER_0_37_57
*1366 FILLER_0_37_69
*1367 FILLER_0_37_81
*1368 FILLER_0_37_93
*1369 FILLER_0_38_100
*1370 FILLER_0_38_110
*1371 FILLER_0_38_113
*1372 FILLER_0_38_117
*1373 FILLER_0_38_122
*1374 FILLER_0_38_126
*1375 FILLER_0_38_131
*1376 FILLER_0_38_138
*1377 FILLER_0_38_145
*1378 FILLER_0_38_149
*1379 FILLER_0_38_15
*1380 FILLER_0_38_167
*1381 FILLER_0_38_186
*1382 FILLER_0_38_194
*1383 FILLER_0_38_214
*1384 FILLER_0_38_222
*1385 FILLER_0_38_242
*1386 FILLER_0_38_256
*1387 FILLER_0_38_260
*1388 FILLER_0_38_27
*1389 FILLER_0_38_278
*1390 FILLER_0_38_29
*1391 FILLER_0_38_3
*1392 FILLER_0_38_303
*1393 FILLER_0_38_307
*1394 FILLER_0_38_313
*1395 FILLER_0_38_319
*1396 FILLER_0_38_337
*1397 FILLER_0_38_349
*1398 FILLER_0_38_41
*1399 FILLER_0_38_53
*1400 FILLER_0_38_57
*1401 FILLER_0_38_68
*1402 FILLER_0_38_74
*1403 FILLER_0_38_80
*1404 FILLER_0_38_88
*1405 FILLER_0_38_92
*1406 FILLER_0_38_96
*1407 FILLER_0_3_105
*1408 FILLER_0_3_111
*1409 FILLER_0_3_113
*1410 FILLER_0_3_125
*1411 FILLER_0_3_137
*1412 FILLER_0_3_149
*1413 FILLER_0_3_15
*1414 FILLER_0_3_161
*1415 FILLER_0_3_167
*1416 FILLER_0_3_169
*1417 FILLER_0_3_181
*1418 FILLER_0_3_193
*1419 FILLER_0_3_205
*1420 FILLER_0_3_217
*1421 FILLER_0_3_223
*1422 FILLER_0_3_225
*1423 FILLER_0_3_237
*1424 FILLER_0_3_249
*1425 FILLER_0_3_261
*1426 FILLER_0_3_27
*1427 FILLER_0_3_273
*1428 FILLER_0_3_279
*1429 FILLER_0_3_281
*1430 FILLER_0_3_293
*1431 FILLER_0_3_3
*1432 FILLER_0_3_305
*1433 FILLER_0_3_317
*1434 FILLER_0_3_329
*1435 FILLER_0_3_335
*1436 FILLER_0_3_337
*1437 FILLER_0_3_349
*1438 FILLER_0_3_39
*1439 FILLER_0_3_51
*1440 FILLER_0_3_55
*1441 FILLER_0_3_57
*1442 FILLER_0_3_69
*1443 FILLER_0_3_81
*1444 FILLER_0_3_93
*1445 FILLER_0_4_109
*1446 FILLER_0_4_121
*1447 FILLER_0_4_133
*1448 FILLER_0_4_139
*1449 FILLER_0_4_141
*1450 FILLER_0_4_15
*1451 FILLER_0_4_153
*1452 FILLER_0_4_165
*1453 FILLER_0_4_177
*1454 FILLER_0_4_189
*1455 FILLER_0_4_195
*1456 FILLER_0_4_197
*1457 FILLER_0_4_209
*1458 FILLER_0_4_221
*1459 FILLER_0_4_233
*1460 FILLER_0_4_245
*1461 FILLER_0_4_251
*1462 FILLER_0_4_253
*1463 FILLER_0_4_265
*1464 FILLER_0_4_27
*1465 FILLER_0_4_277
*1466 FILLER_0_4_289
*1467 FILLER_0_4_29
*1468 FILLER_0_4_3
*1469 FILLER_0_4_301
*1470 FILLER_0_4_307
*1471 FILLER_0_4_309
*1472 FILLER_0_4_321
*1473 FILLER_0_4_333
*1474 FILLER_0_4_345
*1475 FILLER_0_4_41
*1476 FILLER_0_4_53
*1477 FILLER_0_4_65
*1478 FILLER_0_4_77
*1479 FILLER_0_4_83
*1480 FILLER_0_4_85
*1481 FILLER_0_4_97
*1482 FILLER_0_5_105
*1483 FILLER_0_5_111
*1484 FILLER_0_5_113
*1485 FILLER_0_5_125
*1486 FILLER_0_5_137
*1487 FILLER_0_5_149
*1488 FILLER_0_5_15
*1489 FILLER_0_5_161
*1490 FILLER_0_5_167
*1491 FILLER_0_5_169
*1492 FILLER_0_5_181
*1493 FILLER_0_5_193
*1494 FILLER_0_5_205
*1495 FILLER_0_5_217
*1496 FILLER_0_5_223
*1497 FILLER_0_5_225
*1498 FILLER_0_5_237
*1499 FILLER_0_5_249
*1500 FILLER_0_5_261
*1501 FILLER_0_5_27
*1502 FILLER_0_5_273
*1503 FILLER_0_5_279
*1504 FILLER_0_5_281
*1505 FILLER_0_5_293
*1506 FILLER_0_5_3
*1507 FILLER_0_5_305
*1508 FILLER_0_5_317
*1509 FILLER_0_5_329
*1510 FILLER_0_5_335
*1511 FILLER_0_5_337
*1512 FILLER_0_5_349
*1513 FILLER_0_5_39
*1514 FILLER_0_5_51
*1515 FILLER_0_5_55
*1516 FILLER_0_5_57
*1517 FILLER_0_5_69
*1518 FILLER_0_5_81
*1519 FILLER_0_5_93
*1520 FILLER_0_6_109
*1521 FILLER_0_6_121
*1522 FILLER_0_6_133
*1523 FILLER_0_6_139