*SPEF "ieee 1481-1999"
*DESIGN "tt_um_GrayCounter_ariz207"
*DATE "11:11:11 Fri 11 11, 1111"
*VENDOR "OpenRCX"
*PROGRAM "Parallel Extraction"
*VERSION "1.0"
*DESIGN_FLOW "NAME_SCOPE LOCAL" "PIN_CAP NONE"
*DIVIDER /
*DELIMITER :
*BUS_DELIMITER []
*T_UNIT 1 NS
*C_UNIT 1 PF
*R_UNIT 1 OHM
*L_UNIT 1 HENRY

*NAME_MAP
*3 clk
*4 ena
*5 rst_n
*6 ui_in[0]
*7 ui_in[1]
*8 ui_in[2]
*9 ui_in[3]
*10 ui_in[4]
*11 ui_in[5]
*12 ui_in[6]
*13 ui_in[7]
*14 uio_in[0]
*15 uio_in[1]
*16 uio_in[2]
*17 uio_in[3]
*18 uio_in[4]
*19 uio_in[5]
*20 uio_in[6]
*21 uio_in[7]
*22 net14
*23 net15
*24 net16
*25 net17
*26 net18
*27 net19
*28 net20
*29 net21
*30 net2
*31 net3
*32 net4
*33 net5
*34 net6
*35 net7
*36 net8
*37 net9
*38 uo_out[0]
*39 uo_out[1]
*40 uo_out[2]
*41 uo_out[3]
*42 net10
*43 net11
*44 net12
*45 net13
*46 _00_
*47 _01_
*48 _02_
*49 _03_
*50 _04_
*51 _05_
*52 _06_
*53 _07_
*54 _08_
*55 _09_
*56 _10_
*57 _11_
*58 _12_
*59 _13_
*60 _14_
*61 _15_
*62 _16_
*63 _17_
*64 _18_
*65 _19_
*66 _20_
*67 _21_
*68 _22_
*69 clknet_0_clk
*70 clknet_1_0__leaf_clk
*71 clknet_1_1__leaf_clk
*72 g1\.count\[0\]
*73 g1\.count\[1\]
*74 g1\.count\[2\]
*75 g1\.count\[3\]
*76 net1
*77 net22
*78 FILLER_0_0_109
*79 FILLER_0_0_113
*80 FILLER_0_0_125
*81 FILLER_0_0_137
*82 FILLER_0_0_141
*83 FILLER_0_0_15
*84 FILLER_0_0_153
*85 FILLER_0_0_165
*86 FILLER_0_0_169
*87 FILLER_0_0_181
*88 FILLER_0_0_193
*89 FILLER_0_0_197
*90 FILLER_0_0_209
*91 FILLER_0_0_221
*92 FILLER_0_0_225
*93 FILLER_0_0_237
*94 FILLER_0_0_249
*95 FILLER_0_0_253
*96 FILLER_0_0_265
*97 FILLER_0_0_27
*98 FILLER_0_0_277
*99 FILLER_0_0_281
*100 FILLER_0_0_29
*101 FILLER_0_0_293
*102 FILLER_0_0_3
*103 FILLER_0_0_305
*104 FILLER_0_0_309
*105 FILLER_0_0_321
*106 FILLER_0_0_333
*107 FILLER_0_0_337
*108 FILLER_0_0_349
*109 FILLER_0_0_41
*110 FILLER_0_0_53
*111 FILLER_0_0_57
*112 FILLER_0_0_69
*113 FILLER_0_0_81
*114 FILLER_0_0_85
*115 FILLER_0_0_97
*116 FILLER_0_10_109
*117 FILLER_0_10_121
*118 FILLER_0_10_133
*119 FILLER_0_10_139
*120 FILLER_0_10_141
*121 FILLER_0_10_15
*122 FILLER_0_10_153
*123 FILLER_0_10_165
*124 FILLER_0_10_177
*125 FILLER_0_10_189
*126 FILLER_0_10_195
*127 FILLER_0_10_197
*128 FILLER_0_10_209
*129 FILLER_0_10_221
*130 FILLER_0_10_233
*131 FILLER_0_10_245
*132 FILLER_0_10_251
*133 FILLER_0_10_253
*134 FILLER_0_10_265
*135 FILLER_0_10_27
*136 FILLER_0_10_277
*137 FILLER_0_10_289
*138 FILLER_0_10_29
*139 FILLER_0_10_3
*140 FILLER_0_10_301
*141 FILLER_0_10_307
*142 FILLER_0_10_309
*143 FILLER_0_10_321
*144 FILLER_0_10_333
*145 FILLER_0_10_345
*146 FILLER_0_10_41
*147 FILLER_0_10_53
*148 FILLER_0_10_65
*149 FILLER_0_10_77
*150 FILLER_0_10_83
*151 FILLER_0_10_85
*152 FILLER_0_10_97
*153 FILLER_0_11_105
*154 FILLER_0_11_111
*155 FILLER_0_11_113
*156 FILLER_0_11_125
*157 FILLER_0_11_137
*158 FILLER_0_11_149
*159 FILLER_0_11_15
*160 FILLER_0_11_161
*161 FILLER_0_11_167
*162 FILLER_0_11_169
*163 FILLER_0_11_181
*164 FILLER_0_11_193
*165 FILLER_0_11_205
*166 FILLER_0_11_217
*167 FILLER_0_11_223
*168 FILLER_0_11_225
*169 FILLER_0_11_237
*170 FILLER_0_11_249
*171 FILLER_0_11_261
*172 FILLER_0_11_27
*173 FILLER_0_11_273
*174 FILLER_0_11_279
*175 FILLER_0_11_281
*176 FILLER_0_11_293
*177 FILLER_0_11_3
*178 FILLER_0_11_305
*179 FILLER_0_11_317
*180 FILLER_0_11_329
*181 FILLER_0_11_335
*182 FILLER_0_11_337
*183 FILLER_0_11_349
*184 FILLER_0_11_39
*185 FILLER_0_11_51
*186 FILLER_0_11_55
*187 FILLER_0_11_57
*188 FILLER_0_11_69
*189 FILLER_0_11_81
*190 FILLER_0_11_93
*191 FILLER_0_12_109
*192 FILLER_0_12_121
*193 FILLER_0_12_133
*194 FILLER_0_12_139
*195 FILLER_0_12_141
*196 FILLER_0_12_15
*197 FILLER_0_12_153
*198 FILLER_0_12_165
*199 FILLER_0_12_177
*200 FILLER_0_12_189
*201 FILLER_0_12_195
*202 FILLER_0_12_197
*203 FILLER_0_12_209
*204 FILLER_0_12_221
*205 FILLER_0_12_233
*206 FILLER_0_12_245
*207 FILLER_0_12_251
*208 FILLER_0_12_253
*209 FILLER_0_12_265
*210 FILLER_0_12_27
*211 FILLER_0_12_277
*212 FILLER_0_12_289
*213 FILLER_0_12_29
*214 FILLER_0_12_3
*215 FILLER_0_12_301
*216 FILLER_0_12_307
*217 FILLER_0_12_309
*218 FILLER_0_12_321
*219 FILLER_0_12_333
*220 FILLER_0_12_345
*221 FILLER_0_12_41
*222 FILLER_0_12_53
*223 FILLER_0_12_65
*224 FILLER_0_12_77
*225 FILLER_0_12_83
*226 FILLER_0_12_85
*227 FILLER_0_12_97
*228 FILLER_0_13_105
*229 FILLER_0_13_111
*230 FILLER_0_13_113
*231 FILLER_0_13_125
*232 FILLER_0_13_137
*233 FILLER_0_13_149
*234 FILLER_0_13_15
*235 FILLER_0_13_161
*236 FILLER_0_13_167
*237 FILLER_0_13_169
*238 FILLER_0_13_181
*239 FILLER_0_13_193
*240 FILLER_0_13_205
*241 FILLER_0_13_217
*242 FILLER_0_13_223
*243 FILLER_0_13_225
*244 FILLER_0_13_237
*245 FILLER_0_13_249
*246 FILLER_0_13_261
*247 FILLER_0_13_27
*248 FILLER_0_13_273
*249 FILLER_0_13_279
*250 FILLER_0_13_281
*251 FILLER_0_13_293
*252 FILLER_0_13_3
*253 FILLER_0_13_305
*254 FILLER_0_13_317
*255 FILLER_0_13_329
*256 FILLER_0_13_335
*257 FILLER_0_13_337
*258 FILLER_0_13_349
*259 FILLER_0_13_39
*260 FILLER_0_13_51
*261 FILLER_0_13_55
*262 FILLER_0_13_57
*263 FILLER_0_13_69
*264 FILLER_0_13_81
*265 FILLER_0_13_93
*266 FILLER_0_14_109
*267 FILLER_0_14_121
*268 FILLER_0_14_133
*269 FILLER_0_14_139
*270 FILLER_0_14_141
*271 FILLER_0_14_15
*272 FILLER_0_14_153
*273 FILLER_0_14_165
*274 FILLER_0_14_177
*275 FILLER_0_14_189
*276 FILLER_0_14_195
*277 FILLER_0_14_197
*278 FILLER_0_14_209
*279 FILLER_0_14_221
*280 FILLER_0_14_233
*281 FILLER_0_14_245
*282 FILLER_0_14_251
*283 FILLER_0_14_253
*284 FILLER_0_14_265
*285 FILLER_0_14_27
*286 FILLER_0_14_277
*287 FILLER_0_14_289
*288 FILLER_0_14_29
*289 FILLER_0_14_3
*290 FILLER_0_14_301
*291 FILLER_0_14_307
*292 FILLER_0_14_309
*293 FILLER_0_14_321
*294 FILLER_0_14_333
*295 FILLER_0_14_345
*296 FILLER_0_14_41
*297 FILLER_0_14_53
*298 FILLER_0_14_65
*299 FILLER_0_14_77
*300 FILLER_0_14_83
*301 FILLER_0_14_85
*302 FILLER_0_14_97
*303 FILLER_0_15_105
*304 FILLER_0_15_111
*305 FILLER_0_15_113
*306 FILLER_0_15_125
*307 FILLER_0_15_137
*308 FILLER_0_15_149
*309 FILLER_0_15_15
*310 FILLER_0_15_161
*311 FILLER_0_15_167
*312 FILLER_0_15_169
*313 FILLER_0_15_181
*314 FILLER_0_15_193
*315 FILLER_0_15_205
*316 FILLER_0_15_217
*317 FILLER_0_15_223
*318 FILLER_0_15_225
*319 FILLER_0_15_237
*320 FILLER_0_15_249
*321 FILLER_0_15_261
*322 FILLER_0_15_27
*323 FILLER_0_15_273
*324 FILLER_0_15_279
*325 FILLER_0_15_281
*326 FILLER_0_15_293
*327 FILLER_0_15_3
*328 FILLER_0_15_305
*329 FILLER_0_15_317
*330 FILLER_0_15_329
*331 FILLER_0_15_335
*332 FILLER_0_15_337
*333 FILLER_0_15_349
*334 FILLER_0_15_39
*335 FILLER_0_15_51
*336 FILLER_0_15_55
*337 FILLER_0_15_57
*338 FILLER_0_15_69
*339 FILLER_0_15_81
*340 FILLER_0_15_93
*341 FILLER_0_16_109
*342 FILLER_0_16_121
*343 FILLER_0_16_133
*344 FILLER_0_16_139
*345 FILLER_0_16_141
*346 FILLER_0_16_15
*347 FILLER_0_16_153
*348 FILLER_0_16_165
*349 FILLER_0_16_177
*350 FILLER_0_16_189
*351 FILLER_0_16_195
*352 FILLER_0_16_197
*353 FILLER_0_16_209
*354 FILLER_0_16_221
*355 FILLER_0_16_233
*356 FILLER_0_16_245
*357 FILLER_0_16_251
*358 FILLER_0_16_253
*359 FILLER_0_16_265
*360 FILLER_0_16_27
*361 FILLER_0_16_277
*362 FILLER_0_16_289
*363 FILLER_0_16_29
*364 FILLER_0_16_3
*365 FILLER_0_16_301
*366 FILLER_0_16_307
*367 FILLER_0_16_309
*368 FILLER_0_16_321
*369 FILLER_0_16_333
*370 FILLER_0_16_345
*371 FILLER_0_16_41
*372 FILLER_0_16_53
*373 FILLER_0_16_65
*374 FILLER_0_16_77
*375 FILLER_0_16_83
*376 FILLER_0_16_85
*377 FILLER_0_16_97
*378 FILLER_0_17_105
*379 FILLER_0_17_111
*380 FILLER_0_17_113
*381 FILLER_0_17_125
*382 FILLER_0_17_137
*383 FILLER_0_17_149
*384 FILLER_0_17_15
*385 FILLER_0_17_161
*386 FILLER_0_17_167
*387 FILLER_0_17_169
*388 FILLER_0_17_181
*389 FILLER_0_17_193
*390 FILLER_0_17_205
*391 FILLER_0_17_217
*392 FILLER_0_17_223
*393 FILLER_0_17_225
*394 FILLER_0_17_237
*395 FILLER_0_17_249
*396 FILLER_0_17_261
*397 FILLER_0_17_27
*398 FILLER_0_17_273
*399 FILLER_0_17_279
*400 FILLER_0_17_281
*401 FILLER_0_17_293
*402 FILLER_0_17_3
*403 FILLER_0_17_305
*404 FILLER_0_17_317
*405 FILLER_0_17_329
*406 FILLER_0_17_335
*407 FILLER_0_17_337
*408 FILLER_0_17_349
*409 FILLER_0_17_39
*410 FILLER_0_17_51
*411 FILLER_0_17_55
*412 FILLER_0_17_57
*413 FILLER_0_17_69
*414 FILLER_0_17_81
*415 FILLER_0_17_93
*416 FILLER_0_18_109
*417 FILLER_0_18_121
*418 FILLER_0_18_133
*419 FILLER_0_18_139
*420 FILLER_0_18_141
*421 FILLER_0_18_15
*422 FILLER_0_18_153
*423 FILLER_0_18_165
*424 FILLER_0_18_177
*425 FILLER_0_18_189
*426 FILLER_0_18_195
*427 FILLER_0_18_197
*428 FILLER_0_18_209
*429 FILLER_0_18_221
*430 FILLER_0_18_233
*431 FILLER_0_18_245
*432 FILLER_0_18_251
*433 FILLER_0_18_253
*434 FILLER_0_18_265
*435 FILLER_0_18_27
*436 FILLER_0_18_277
*437 FILLER_0_18_289
*438 FILLER_0_18_29
*439 FILLER_0_18_3
*440 FILLER_0_18_301
*441 FILLER_0_18_307
*442 FILLER_0_18_309
*443 FILLER_0_18_321
*444 FILLER_0_18_333
*445 FILLER_0_18_345
*446 FILLER_0_18_41
*447 FILLER_0_18_53
*448 FILLER_0_18_65
*449 FILLER_0_18_77
*450 FILLER_0_18_83
*451 FILLER_0_18_85
*452 FILLER_0_18_97
*453 FILLER_0_19_105
*454 FILLER_0_19_111
*455 FILLER_0_19_113
*456 FILLER_0_19_125
*457 FILLER_0_19_137
*458 FILLER_0_19_149
*459 FILLER_0_19_15
*460 FILLER_0_19_161
*461 FILLER_0_19_167
*462 FILLER_0_19_169
*463 FILLER_0_19_181
*464 FILLER_0_19_193
*465 FILLER_0_19_205
*466 FILLER_0_19_217
*467 FILLER_0_19_223
*468 FILLER_0_19_225
*469 FILLER_0_19_237
*470 FILLER_0_19_249
*471 FILLER_0_19_261
*472 FILLER_0_19_27
*473 FILLER_0_19_273
*474 FILLER_0_19_279
*475 FILLER_0_19_281
*476 FILLER_0_19_293
*477 FILLER_0_19_3
*478 FILLER_0_19_305
*479 FILLER_0_19_317
*480 FILLER_0_19_329
*481 FILLER_0_19_335
*482 FILLER_0_19_337
*483 FILLER_0_19_349
*484 FILLER_0_19_39
*485 FILLER_0_19_51
*486 FILLER_0_19_55
*487 FILLER_0_19_57
*488 FILLER_0_19_69
*489 FILLER_0_19_81
*490 FILLER_0_19_93
*491 FILLER_0_1_105
*492 FILLER_0_1_111
*493 FILLER_0_1_113
*494 FILLER_0_1_125
*495 FILLER_0_1_137
*496 FILLER_0_1_149
*497 FILLER_0_1_15
*498 FILLER_0_1_161
*499 FILLER_0_1_167
*500 FILLER_0_1_169
*501 FILLER_0_1_181
*502 FILLER_0_1_193
*503 FILLER_0_1_205
*504 FILLER_0_1_217
*505 FILLER_0_1_223
*506 FILLER_0_1_225
*507 FILLER_0_1_237
*508 FILLER_0_1_249
*509 FILLER_0_1_261
*510 FILLER_0_1_27
*511 FILLER_0_1_273
*512 FILLER_0_1_279
*513 FILLER_0_1_281
*514 FILLER_0_1_293
*515 FILLER_0_1_3
*516 FILLER_0_1_305
*517 FILLER_0_1_317
*518 FILLER_0_1_329
*519 FILLER_0_1_335
*520 FILLER_0_1_337
*521 FILLER_0_1_349
*522 FILLER_0_1_39
*523 FILLER_0_1_51
*524 FILLER_0_1_55
*525 FILLER_0_1_57
*526 FILLER_0_1_69
*527 FILLER_0_1_81
*528 FILLER_0_1_93
*529 FILLER_0_20_109
*530 FILLER_0_20_121
*531 FILLER_0_20_133
*532 FILLER_0_20_139
*533 FILLER_0_20_141
*534 FILLER_0_20_15
*535 FILLER_0_20_153
*536 FILLER_0_20_165
*537 FILLER_0_20_177
*538 FILLER_0_20_189
*539 FILLER_0_20_195
*540 FILLER_0_20_197
*541 FILLER_0_20_209
*542 FILLER_0_20_221
*543 FILLER_0_20_233
*544 FILLER_0_20_245
*545 FILLER_0_20_251
*546 FILLER_0_20_253
*547 FILLER_0_20_265
*548 FILLER_0_20_27
*549 FILLER_0_20_277
*550 FILLER_0_20_289
*551 FILLER_0_20_29
*552 FILLER_0_20_3
*553 FILLER_0_20_301
*554 FILLER_0_20_307
*555 FILLER_0_20_309
*556 FILLER_0_20_321
*557 FILLER_0_20_333
*558 FILLER_0_20_345
*559 FILLER_0_20_41
*560 FILLER_0_20_53
*561 FILLER_0_20_65
*562 FILLER_0_20_77
*563 FILLER_0_20_83
*564 FILLER_0_20_85
*565 FILLER_0_20_97
*566 FILLER_0_21_105
*567 FILLER_0_21_111
*568 FILLER_0_21_113
*569 FILLER_0_21_125
*570 FILLER_0_21_137
*571 FILLER_0_21_149
*572 FILLER_0_21_15
*573 FILLER_0_21_161
*574 FILLER_0_21_167
*575 FILLER_0_21_169
*576 FILLER_0_21_181
*577 FILLER_0_21_193
*578 FILLER_0_21_205
*579 FILLER_0_21_217
*580 FILLER_0_21_223
*581 FILLER_0_21_225
*582 FILLER_0_21_237
*583 FILLER_0_21_249
*584 FILLER_0_21_261
*585 FILLER_0_21_27
*586 FILLER_0_21_273
*587 FILLER_0_21_279
*588 FILLER_0_21_281
*589 FILLER_0_21_293
*590 FILLER_0_21_3
*591 FILLER_0_21_305
*592 FILLER_0_21_317
*593 FILLER_0_21_329
*594 FILLER_0_21_335
*595 FILLER_0_21_337
*596 FILLER_0_21_349
*597 FILLER_0_21_39
*598 FILLER_0_21_51
*599 FILLER_0_21_55
*600 FILLER_0_21_57
*601 FILLER_0_21_69
*602 FILLER_0_21_81
*603 FILLER_0_21_93
*604 FILLER_0_22_109
*605 FILLER_0_22_121
*606 FILLER_0_22_133
*607 FILLER_0_22_139
*608 FILLER_0_22_141
*609 FILLER_0_22_15
*610 FILLER_0_22_153
*611 FILLER_0_22_165
*612 FILLER_0_22_177
*613 FILLER_0_22_189
*614 FILLER_0_22_195
*615 FILLER_0_22_197
*616 FILLER_0_22_209
*617 FILLER_0_22_221
*618 FILLER_0_22_233
*619 FILLER_0_22_245
*620 FILLER_0_22_251
*621 FILLER_0_22_253
*622 FILLER_0_22_265
*623 FILLER_0_22_27
*624 FILLER_0_22_277
*625 FILLER_0_22_289
*626 FILLER_0_22_29
*627 FILLER_0_22_3
*628 FILLER_0_22_301
*629 FILLER_0_22_307
*630 FILLER_0_22_309
*631 FILLER_0_22_321
*632 FILLER_0_22_333
*633 FILLER_0_22_345
*634 FILLER_0_22_41
*635 FILLER_0_22_53
*636 FILLER_0_22_65
*637 FILLER_0_22_77
*638 FILLER_0_22_83
*639 FILLER_0_22_85
*640 FILLER_0_22_97
*641 FILLER_0_23_105
*642 FILLER_0_23_111
*643 FILLER_0_23_113
*644 FILLER_0_23_125
*645 FILLER_0_23_137
*646 FILLER_0_23_149
*647 FILLER_0_23_15
*648 FILLER_0_23_161
*649 FILLER_0_23_167
*650 FILLER_0_23_169
*651 FILLER_0_23_181
*652 FILLER_0_23_193
*653 FILLER_0_23_205
*654 FILLER_0_23_217
*655 FILLER_0_23_223
*656 FILLER_0_23_225
*657 FILLER_0_23_237
*658 FILLER_0_23_249
*659 FILLER_0_23_261
*660 FILLER_0_23_27
*661 FILLER_0_23_273
*662 FILLER_0_23_279
*663 FILLER_0_23_281
*664 FILLER_0_23_293
*665 FILLER_0_23_3
*666 FILLER_0_23_305
*667 FILLER_0_23_317
*668 FILLER_0_23_329
*669 FILLER_0_23_335
*670 FILLER_0_23_337
*671 FILLER_0_23_349
*672 FILLER_0_23_39
*673 FILLER_0_23_51
*674 FILLER_0_23_55
*675 FILLER_0_23_57
*676 FILLER_0_23_69
*677 FILLER_0_23_81
*678 FILLER_0_23_93
*679 FILLER_0_24_109
*680 FILLER_0_24_121
*681 FILLER_0_24_133
*682 FILLER_0_24_139
*683 FILLER_0_24_141
*684 FILLER_0_24_15
*685 FILLER_0_24_153
*686 FILLER_0_24_165
*687 FILLER_0_24_177
*688 FILLER_0_24_189
*689 FILLER_0_24_195
*690 FILLER_0_24_197
*691 FILLER_0_24_209
*692 FILLER_0_24_221
*693 FILLER_0_24_233
*694 FILLER_0_24_245
*695 FILLER_0_24_251
*696 FILLER_0_24_253
*697 FILLER_0_24_265
*698 FILLER_0_24_27
*699 FILLER_0_24_277
*700 FILLER_0_24_289
*701 FILLER_0_24_29
*702 FILLER_0_24_3
*703 FILLER_0_24_301
*704 FILLER_0_24_307
*705 FILLER_0_24_309
*706 FILLER_0_24_321
*707 FILLER_0_24_333
*708 FILLER_0_24_345
*709 FILLER_0_24_41
*710 FILLER_0_24_53
*711 FILLER_0_24_65
*712 FILLER_0_24_77
*713 FILLER_0_24_83
*714 FILLER_0_24_85
*715 FILLER_0_24_97
*716 FILLER_0_25_105
*717 FILLER_0_25_111
*718 FILLER_0_25_113
*719 FILLER_0_25_125
*720 FILLER_0_25_137
*721 FILLER_0_25_149
*722 FILLER_0_25_15
*723 FILLER_0_25_161
*724 FILLER_0_25_167
*725 FILLER_0_25_169
*726 FILLER_0_25_181
*727 FILLER_0_25_193
*728 FILLER_0_25_205
*729 FILLER_0_25_217
*730 FILLER_0_25_223
*731 FILLER_0_25_225
*732 FILLER_0_25_237
*733 FILLER_0_25_249
*734 FILLER_0_25_261
*735 FILLER_0_25_27
*736 FILLER_0_25_273
*737 FILLER_0_25_279
*738 FILLER_0_25_281
*739 FILLER_0_25_293
*740 FILLER_0_25_3
*741 FILLER_0_25_305
*742 FILLER_0_25_317
*743 FILLER_0_25_329
*744 FILLER_0_25_335
*745 FILLER_0_25_337
*746 FILLER_0_25_349
*747 FILLER_0_25_39
*748 FILLER_0_25_51
*749 FILLER_0_25_55
*750 FILLER_0_25_57
*751 FILLER_0_25_69
*752 FILLER_0_25_81
*753 FILLER_0_25_93
*754 FILLER_0_26_109
*755 FILLER_0_26_121
*756 FILLER_0_26_133
*757 FILLER_0_26_139
*758 FILLER_0_26_141
*759 FILLER_0_26_15
*760 FILLER_0_26_153
*761 FILLER_0_26_165
*762 FILLER_0_26_177
*763 FILLER_0_26_189
*764 FILLER_0_26_195
*765 FILLER_0_26_197
*766 FILLER_0_26_209
*767 FILLER_0_26_221
*768 FILLER_0_26_233
*769 FILLER_0_26_245
*770 FILLER_0_26_251
*771 FILLER_0_26_253
*772 FILLER_0_26_265
*773 FILLER_0_26_27
*774 FILLER_0_26_277
*775 FILLER_0_26_289
*776 FILLER_0_26_29
*777 FILLER_0_26_3
*778 FILLER_0_26_301
*779 FILLER_0_26_307
*780 FILLER_0_26_309
*781 FILLER_0_26_321
*782 FILLER_0_26_333
*783 FILLER_0_26_345
*784 FILLER_0_26_41
*785 FILLER_0_26_53
*786 FILLER_0_26_65
*787 FILLER_0_26_77
*788 FILLER_0_26_83
*789 FILLER_0_26_85
*790 FILLER_0_26_97
*791 FILLER_0_27_105
*792 FILLER_0_27_111
*793 FILLER_0_27_113
*794 FILLER_0_27_125
*795 FILLER_0_27_137
*796 FILLER_0_27_149
*797 FILLER_0_27_15
*798 FILLER_0_27_161
*799 FILLER_0_27_167
*800 FILLER_0_27_169
*801 FILLER_0_27_181
*802 FILLER_0_27_193
*803 FILLER_0_27_205
*804 FILLER_0_27_217
*805 FILLER_0_27_223
*806 FILLER_0_27_225
*807 FILLER_0_27_237
*808 FILLER_0_27_249
*809 FILLER_0_27_261
*810 FILLER_0_27_27
*811 FILLER_0_27_273
*812 FILLER_0_27_279
*813 FILLER_0_27_281
*814 FILLER_0_27_293
*815 FILLER_0_27_3
*816 FILLER_0_27_305
*817 FILLER_0_27_317
*818 FILLER_0_27_329
*819 FILLER_0_27_335
*820 FILLER_0_27_337
*821 FILLER_0_27_349
*822 FILLER_0_27_39
*823 FILLER_0_27_51
*824 FILLER_0_27_55
*825 FILLER_0_27_57
*826 FILLER_0_27_69
*827 FILLER_0_27_81
*828 FILLER_0_27_93
*829 FILLER_0_28_109
*830 FILLER_0_28_121
*831 FILLER_0_28_133
*832 FILLER_0_28_139
*833 FILLER_0_28_141
*834 FILLER_0_28_15
*835 FILLER_0_28_153
*836 FILLER_0_28_165
*837 FILLER_0_28_177
*838 FILLER_0_28_189
*839 FILLER_0_28_195
*840 FILLER_0_28_197
*841 FILLER_0_28_209
*842 FILLER_0_28_221
*843 FILLER_0_28_233
*844 FILLER_0_28_245
*845 FILLER_0_28_251
*846 FILLER_0_28_253
*847 FILLER_0_28_265
*848 FILLER_0_28_27
*849 FILLER_0_28_277
*850 FILLER_0_28_289
*851 FILLER_0_28_29
*852 FILLER_0_28_3
*853 FILLER_0_28_301
*854 FILLER_0_28_307
*855 FILLER_0_28_309
*856 FILLER_0_28_321
*857 FILLER_0_28_333
*858 FILLER_0_28_345
*859 FILLER_0_28_41
*860 FILLER_0_28_53
*861 FILLER_0_28_65
*862 FILLER_0_28_77
*863 FILLER_0_28_83
*864 FILLER_0_28_85
*865 FILLER_0_28_97
*866 FILLER_0_29_105
*867 FILLER_0_29_111
*868 FILLER_0_29_113
*869 FILLER_0_29_125
*870 FILLER_0_29_137
*871 FILLER_0_29_149
*872 FILLER_0_29_15
*873 FILLER_0_29_161
*874 FILLER_0_29_167
*875 FILLER_0_29_169
*876 FILLER_0_29_181
*877 FILLER_0_29_193
*878 FILLER_0_29_205
*879 FILLER_0_29_217
*880 FILLER_0_29_223
*881 FILLER_0_29_225
*882 FILLER_0_29_237
*883 FILLER_0_29_249
*884 FILLER_0_29_261
*885 FILLER_0_29_27
*886 FILLER_0_29_273
*887 FILLER_0_29_279
*888 FILLER_0_29_281
*889 FILLER_0_29_293
*890 FILLER_0_29_3
*891 FILLER_0_29_305
*892 FILLER_0_29_317
*893 FILLER_0_29_329
*894 FILLER_0_29_335
*895 FILLER_0_29_337
*896 FILLER_0_29_349
*897 FILLER_0_29_39
*898 FILLER_0_29_51
*899 FILLER_0_29_55
*900 FILLER_0_29_57
*901 FILLER_0_29_69
*902 FILLER_0_29_81
*903 FILLER_0_29_93
*904 FILLER_0_2_109
*905 FILLER_0_2_121
*906 FILLER_0_2_133
*907 FILLER_0_2_139
*908 FILLER_0_2_141
*909 FILLER_0_2_15
*910 FILLER_0_2_153
*911 FILLER_0_2_165
*912 FILLER_0_2_177
*913 FILLER_0_2_189
*914 FILLER_0_2_195
*915 FILLER_0_2_197
*916 FILLER_0_2_209
*917 FILLER_0_2_221
*918 FILLER_0_2_233
*919 FILLER_0_2_245
*920 FILLER_0_2_251
*921 FILLER_0_2_253
*922 FILLER_0_2_265
*923 FILLER_0_2_27
*924 FILLER_0_2_277
*925 FILLER_0_2_289
*926 FILLER_0_2_29
*927 FILLER_0_2_3
*928 FILLER_0_2_301
*929 FILLER_0_2_307
*930 FILLER_0_2_309
*931 FILLER_0_2_321
*932 FILLER_0_2_333
*933 FILLER_0_2_345
*934 FILLER_0_2_41
*935 FILLER_0_2_53
*936 FILLER_0_2_65
*937 FILLER_0_2_77
*938 FILLER_0_2_83
*939 FILLER_0_2_85
*940 FILLER_0_2_97
*941 FILLER_0_30_109
*942 FILLER_0_30_121
*943 FILLER_0_30_133
*944 FILLER_0_30_139
*945 FILLER_0_30_141
*946 FILLER_0_30_15
*947 FILLER_0_30_153
*948 FILLER_0_30_165
*949 FILLER_0_30_177
*950 FILLER_0_30_189
*951 FILLER_0_30_195
*952 FILLER_0_30_197
*953 FILLER_0_30_209
*954 FILLER_0_30_221
*955 FILLER_0_30_233
*956 FILLER_0_30_245
*957 FILLER_0_30_251
*958 FILLER_0_30_253
*959 FILLER_0_30_265
*960 FILLER_0_30_27
*961 FILLER_0_30_277
*962 FILLER_0_30_289
*963 FILLER_0_30_29
*964 FILLER_0_30_3
*965 FILLER_0_30_301
*966 FILLER_0_30_307
*967 FILLER_0_30_309
*968 FILLER_0_30_321
*969 FILLER_0_30_333
*970 FILLER_0_30_345
*971 FILLER_0_30_41
*972 FILLER_0_30_53
*973 FILLER_0_30_65
*974 FILLER_0_30_77
*975 FILLER_0_30_83
*976 FILLER_0_30_85
*977 FILLER_0_30_97
*978 FILLER_0_31_105
*979 FILLER_0_31_111
*980 FILLER_0_31_113
*981 FILLER_0_31_125
*982 FILLER_0_31_137
*983 FILLER_0_31_149
*984 FILLER_0_31_15
*985 FILLER_0_31_161
*986 FILLER_0_31_167
*987 FILLER_0_31_169
*988 FILLER_0_31_181
*989 FILLER_0_31_193
*990 FILLER_0_31_205
*991 FILLER_0_31_217
*992 FILLER_0_31_223
*993 FILLER_0_31_225
*994 FILLER_0_31_237
*995 FILLER_0_31_249
*996 FILLER_0_31_261
*997 FILLER_0_31_27
*998 FILLER_0_31_273
*999 FILLER_0_31_279
*1000 FILLER_0_31_281
*1001 FILLER_0_31_293
*1002 FILLER_0_31_3
*1003 FILLER_0_31_305
*1004 FILLER_0_31_317
*1005 FILLER_0_31_329
*1006 FILLER_0_31_335
*1007 FILLER_0_31_337
*1008 FILLER_0_31_349
*1009 FILLER_0_31_39
*1010 FILLER_0_31_51
*1011 FILLER_0_31_55
*1012 FILLER_0_31_57
*1013 FILLER_0_31_69
*1014 FILLER_0_31_81
*1015 FILLER_0_31_93
*1016 FILLER_0_32_109
*1017 FILLER_0_32_121
*1018 FILLER_0_32_133
*1019 FILLER_0_32_139
*1020 FILLER_0_32_141
*1021 FILLER_0_32_15
*1022 FILLER_0_32_153
*1023 FILLER_0_32_165
*1024 FILLER_0_32_177
*1025 FILLER_0_32_189
*1026 FILLER_0_32_195
*1027 FILLER_0_32_197
*1028 FILLER_0_32_209
*1029 FILLER_0_32_221
*1030 FILLER_0_32_233
*1031 FILLER_0_32_245
*1032 FILLER_0_32_251
*1033 FILLER_0_32_253
*1034 FILLER_0_32_265
*1035 FILLER_0_32_27
*1036 FILLER_0_32_277
*1037 FILLER_0_32_289
*1038 FILLER_0_32_29
*1039 FILLER_0_32_3
*1040 FILLER_0_32_301
*1041 FILLER_0_32_307
*1042 FILLER_0_32_309
*1043 FILLER_0_32_321
*1044 FILLER_0_32_333
*1045 FILLER_0_32_345
*1046 FILLER_0_32_41
*1047 FILLER_0_32_53
*1048 FILLER_0_32_65
*1049 FILLER_0_32_77
*1050 FILLER_0_32_83
*1051 FILLER_0_32_85
*1052 FILLER_0_32_97
*1053 FILLER_0_33_105
*1054 FILLER_0_33_111
*1055 FILLER_0_33_113
*1056 FILLER_0_33_125
*1057 FILLER_0_33_137
*1058 FILLER_0_33_149
*1059 FILLER_0_33_15
*1060 FILLER_0_33_161
*1061 FILLER_0_33_167
*1062 FILLER_0_33_169
*1063 FILLER_0_33_180
*1064 FILLER_0_33_192
*1065 FILLER_0_33_204
*1066 FILLER_0_33_216
*1067 FILLER_0_33_225
*1068 FILLER_0_33_233
*1069 FILLER_0_33_239
*1070 FILLER_0_33_251
*1071 FILLER_0_33_263
*1072 FILLER_0_33_27
*1073 FILLER_0_33_275
*1074 FILLER_0_33_279
*1075 FILLER_0_33_281
*1076 FILLER_0_33_293
*1077 FILLER_0_33_3
*1078 FILLER_0_33_305
*1079 FILLER_0_33_317
*1080 FILLER_0_33_329
*1081 FILLER_0_33_335
*1082 FILLER_0_33_337
*1083 FILLER_0_33_349
*1084 FILLER_0_33_39
*1085 FILLER_0_33_51
*1086 FILLER_0_33_55
*1087 FILLER_0_33_57
*1088 FILLER_0_33_69
*1089 FILLER_0_33_81
*1090 FILLER_0_33_93
*1091 FILLER_0_34_109
*1092 FILLER_0_34_121
*1093 FILLER_0_34_133
*1094 FILLER_0_34_139
*1095 FILLER_0_34_141
*1096 FILLER_0_34_15
*1097 FILLER_0_34_153
*1098 FILLER_0_34_165
*1099 FILLER_0_34_194
*1100 FILLER_0_34_202
*1101 FILLER_0_34_214
*1102 FILLER_0_34_219
*1103 FILLER_0_34_251
*1104 FILLER_0_34_259
*1105 FILLER_0_34_27
*1106 FILLER_0_34_271
*1107 FILLER_0_34_283
*1108 FILLER_0_34_29
*1109 FILLER_0_34_295
*1110 FILLER_0_34_3
*1111 FILLER_0_34_307
*1112 FILLER_0_34_309
*1113 FILLER_0_34_321
*1114 FILLER_0_34_333
*1115 FILLER_0_34_345
*1116 FILLER_0_34_41
*1117 FILLER_0_34_53
*1118 FILLER_0_34_65
*1119 FILLER_0_34_77
*1120 FILLER_0_34_83
*1121 FILLER_0_34_85
*1122 FILLER_0_34_97
*1123 FILLER_0_35_105
*1124 FILLER_0_35_111
*1125 FILLER_0_35_113
*1126 FILLER_0_35_125
*1127 FILLER_0_35_137
*1128 FILLER_0_35_149
*1129 FILLER_0_35_15
*1130 FILLER_0_35_161
*1131 FILLER_0_35_167
*1132 FILLER_0_35_169
*1133 FILLER_0_35_199
*1134 FILLER_0_35_223
*1135 FILLER_0_35_225
*1136 FILLER_0_35_251
*1137 FILLER_0_35_27
*1138 FILLER_0_35_271
*1139 FILLER_0_35_279
*1140 FILLER_0_35_281
*1141 FILLER_0_35_293
*1142 FILLER_0_35_3
*1143 FILLER_0_35_305
*1144 FILLER_0_35_317
*1145 FILLER_0_35_329
*1146 FILLER_0_35_335
*1147 FILLER_0_35_337
*1148 FILLER_0_35_349
*1149 FILLER_0_35_39
*1150 FILLER_0_35_51
*1151 FILLER_0_35_55
*1152 FILLER_0_35_57
*1153 FILLER_0_35_69
*1154 FILLER_0_35_81
*1155 FILLER_0_35_93
*1156 FILLER_0_36_109
*1157 FILLER_0_36_121
*1158 FILLER_0_36_133
*1159 FILLER_0_36_139
*1160 FILLER_0_36_141
*1161 FILLER_0_36_15
*1162 FILLER_0_36_153
*1163 FILLER_0_36_165
*1164 FILLER_0_36_177
*1165 FILLER_0_36_192
*1166 FILLER_0_36_197
*1167 FILLER_0_36_204
*1168 FILLER_0_36_211
*1169 FILLER_0_36_215
*1170 FILLER_0_36_219
*1171 FILLER_0_36_227
*1172 FILLER_0_36_240
*1173 FILLER_0_36_253
*1174 FILLER_0_36_265
*1175 FILLER_0_36_27
*1176 FILLER_0_36_277
*1177 FILLER_0_36_289
*1178 FILLER_0_36_29
*1179 FILLER_0_36_3
*1180 FILLER_0_36_301
*1181 FILLER_0_36_307
*1182 FILLER_0_36_309
*1183 FILLER_0_36_321
*1184 FILLER_0_36_333
*1185 FILLER_0_36_345
*1186 FILLER_0_36_41
*1187 FILLER_0_36_53
*1188 FILLER_0_36_65
*1189 FILLER_0_36_77
*1190 FILLER_0_36_83
*1191 FILLER_0_36_85
*1192 FILLER_0_36_97
*1193 FILLER_0_37_105
*1194 FILLER_0_37_111
*1195 FILLER_0_37_113
*1196 FILLER_0_37_125
*1197 FILLER_0_37_137
*1198 FILLER_0_37_149
*1199 FILLER_0_37_15
*1200 FILLER_0_37_161
*1201 FILLER_0_37_167
*1202 FILLER_0_37_169
*1203 FILLER_0_37_181
*1204 FILLER_0_37_209
*1205 FILLER_0_37_221
*1206 FILLER_0_37_248
*1207 FILLER_0_37_260
*1208 FILLER_0_37_27
*1209 FILLER_0_37_272
*1210 FILLER_0_37_281
*1211 FILLER_0_37_293
*1212 FILLER_0_37_3
*1213 FILLER_0_37_305
*1214 FILLER_0_37_317
*1215 FILLER_0_37_329
*1216 FILLER_0_37_335
*1217 FILLER_0_37_337
*1218 FILLER_0_37_349
*1219 FILLER_0_37_39
*1220 FILLER_0_37_51
*1221 FILLER_0_37_55
*1222 FILLER_0_37_57
*1223 FILLER_0_37_69
*1224 FILLER_0_37_81
*1225 FILLER_0_37_93
*1226 FILLER_0_38_104
*1227 FILLER_0_38_110
*1228 FILLER_0_38_116
*1229 FILLER_0_38_122
*1230 FILLER_0_38_128
*1231 FILLER_0_38_134
*1232 FILLER_0_38_141
*1233 FILLER_0_38_146
*1234 FILLER_0_38_15
*1235 FILLER_0_38_152
*1236 FILLER_0_38_158
*1237 FILLER_0_38_164
*1238 FILLER_0_38_169
*1239 FILLER_0_38_194
*1240 FILLER_0_38_197
*1241 FILLER_0_38_218
*1242 FILLER_0_38_225
*1243 FILLER_0_38_246
*1244 FILLER_0_38_253
*1245 FILLER_0_38_265
*1246 FILLER_0_38_27
*1247 FILLER_0_38_277
*1248 FILLER_0_38_281
*1249 FILLER_0_38_29
*1250 FILLER_0_38_293
*1251 FILLER_0_38_3
*1252 FILLER_0_38_305
*1253 FILLER_0_38_313
*1254 FILLER_0_38_325
*1255 FILLER_0_38_333
*1256 FILLER_0_38_337
*1257 FILLER_0_38_349
*1258 FILLER_0_38_41
*1259 FILLER_0_38_53
*1260 FILLER_0_38_57
*1261 FILLER_0_38_68
*1262 FILLER_0_38_74
*1263 FILLER_0_38_80
*1264 FILLER_0_38_88
*1265 FILLER_0_38_92
*1266 FILLER_0_38_98
*1267 FILLER_0_3_105
*1268 FILLER_0_3_111
*1269 FILLER_0_3_113
*1270 FILLER_0_3_125
*1271 FILLER_0_3_137
*1272 FILLER_0_3_149
*1273 FILLER_0_3_15
*1274 FILLER_0_3_161
*1275 FILLER_0_3_167
*1276 FILLER_0_3_169
*1277 FILLER_0_3_181
*1278 FILLER_0_3_193
*1279 FILLER_0_3_205
*1280 FILLER_0_3_217
*1281 FILLER_0_3_223
*1282 FILLER_0_3_225
*1283 FILLER_0_3_237
*1284 FILLER_0_3_249
*1285 FILLER_0_3_261
*1286 FILLER_0_3_27
*1287 FILLER_0_3_273
*1288 FILLER_0_3_279
*1289 FILLER_0_3_281
*1290 FILLER_0_3_293
*1291 FILLER_0_3_3
*1292 FILLER_0_3_305
*1293 FILLER_0_3_317
*1294 FILLER_0_3_329
*1295 FILLER_0_3_335
*1296 FILLER_0_3_337
*1297 FILLER_0_3_349
*1298 FILLER_0_3_39
*1299 FILLER_0_3_51
*1300 FILLER_0_3_55
*1301 FILLER_0_3_57
*1302 FILLER_0_3_69
*1303 FILLER_0_3_81
*1304 FILLER_0_3_93
*1305 FILLER_0_4_109
*1306 FILLER_0_4_121
*1307 FILLER_0_4_133
*1308 FILLER_0_4_139
*1309 FILLER_0_4_141
*1310 FILLER_0_4_15
*1311 FILLER_0_4_153
*1312 FILLER_0_4_165
*1313 FILLER_0_4_177
*1314 FILLER_0_4_189
*1315 FILLER_0_4_195
*1316 FILLER_0_4_197
*1317 FILLER_0_4_209
*1318 FILLER_0_4_221
*1319 FILLER_0_4_233
*1320 FILLER_0_4_245
*1321 FILLER_0_4_251
*1322 FILLER_0_4_253
*1323 FILLER_0_4_265
*1324 FILLER_0_4_27
*1325 FILLER_0_4_277
*1326 FILLER_0_4_289
*1327 FILLER_0_4_29
*1328 FILLER_0_4_3
*1329 FILLER_0_4_301
*1330 FILLER_0_4_307
*1331 FILLER_0_4_309
*1332 FILLER_0_4_321
*1333 FILLER_0_4_333
*1334 FILLER_0_4_345
*1335 FILLER_0_4_41
*1336 FILLER_0_4_53
*1337 FILLER_0_4_65
*1338 FILLER_0_4_77
*1339 FILLER_0_4_83
*1340 FILLER_0_4_85
*1341 FILLER_0_4_97
*1342 FILLER_0_5_105
*1343 FILLER_0_5_111
*1344 FILLER_0_5_113
*1345 FILLER_0_5_125
*1346 FILLER_0_5_137
*1347 FILLER_0_5_149
*1348 FILLER_0_5_15
*1349 FILLER_0_5_161
*1350 FILLER_0_5_167
*1351 FILLER_0_5_169
*1352 FILLER_0_5_181
*1353 FILLER_0_5_193
*1354 FILLER_0_5_205
*1355 FILLER_0_5_217
*1356 FILLER_0_5_223
*1357 FILLER_0_5_225
*1358 FILLER_0_5_237
*1359 FILLER_0_5_249
*1360 FILLER_0_5_261
*1361 FILLER_0_5_27
*1362 FILLER_0_5_273
*1363 FILLER_0_5_279
*1364 FILLER_0_5_281
*1365 FILLER_0_5_293
*1366 FILLER_0_5_3
*1367 FILLER_0_5_305
*1368 FILLER_0_5_317
*1369 FILLER_0_5_329
*1370 FILLER_0_5_335
*1371 FILLER_0_5_337
*1372 FILLER_0_5_349
*1373 FILLER_0_5_39
*1374 FILLER_0_5_51
*1375 FILLER_0_5_55
*1376 FILLER_0_5_57
*1377 FILLER_0_5_69
*1378 FILLER_0_5_81
*1379 FILLER_0_5_93
*1380 FILLER_0_6_109
*1381 FILLER_0_6_121
*1382 FILLER_0_6_133
*1383 FILLER_0_6_139
*1384 FILLER_0_6_141
*1385 FILLER_0_6_15
*1386 FILLER_0_6_153
*1387 FILLER_0_6_165
*1388 FILLER_0_6_177
*1389 FILLER_0_6_189
*1390 FILLER_0_6_195
*1391 FILLER_0_6_197
*1392 FILLER_0_6_209
*1393 FILLER_0_6_221
*1394 FILLER_0_6_233
*1395 FILLER_0_6_245
*1396 FILLER_0_6_251
*1397 FILLER_0_6_253
*1398 FILLER_0_6_265
*1399 FILLER_0_6_27
*1400 FILLER_0_6_277
*1401 FILLER_0_6_289
*1402 FILLER_0_6_29
*1403 FILLER_0_6_3
*1404 FILLER_0_6_301
*1405 FILLER_0_6_307
*1406 FILLER_0_6_309
*1407 FILLER_0_6_321
*1408 FILLER_0_6_333
*1409 FILLER_0_6_345
*1410 FILLER_0_6_41
*1411 FILLER_0_6_53
*1412 FILLER_0_6_65
*1413 FILLER_0_6_77
*1414 FILLER_0_6_83
*1415 FILLER_0_6_85
*1416 FILLER_0_6_97
*1417 FILLER_0_7_105
*1418 FILLER_0_7_111
*1419 FILLER_0_7_113
*1420 FILLER_0_7_125
*1421 FILLER_0_7_137
*1422 FILLER_0_7_149
*1423 FILLER_0_7_15
*1424 FILLER_0_7_161
*1425 FILLER_0_7_167
*1426 FILLER_0_7_169
*1427 FILLER_0_7_181
*1428 FILLER_0_7_193
*1429 FILLER_0_7_205
*1430 FILLER_0_7_217
*1431 FILLER_0_7_223
*1432 FILLER_0_7_225
*1433 FILLER_0_7_237
*1434 FILLER_0_7_249
*1435 FILLER_0_7_261
*1436 FILLER_0_7_27
*1437 FILLER_0_7_273
*1438 FILLER_0_7_279
*1439 FILLER_0_7_281
*1440 FILLER_0_7_293
*1441 FILLER_0_7_3
*1442 FILLER_0_7_305
*1443 FILLER_0_7_317
*1444 FILLER_0_7_329
*1445 FILLER_0_7_335
*1446 FILLER_0_7_337
*1447 FILLER_0_7_349
*1448 FILLER_0_7_39
*1449 FILLER_0_7_51
*1450 FILLER_0_7_55
*1451 FILLER_0_7_57
*1452 FILLER_0_7_69
*1453 FILLER_0_7_81
*1454 FILLER_0_7_93
*1455 FILLER_0_8_109
*1456 FILLER_0_8_121
*1457 FILLER_0_8_133
*1458 FILLER_0_8_139
*1459 FILLER_0_8_141
*1460 FILLER_0_8_15
*1461 FILLER_0_8_153
*1462 FILLER_0_8_165
*1463 FILLER_0_8_177
*1464 FILLER_0_8_189