*SPEF "ieee 1481-1999"
*DESIGN "tt_um_rgb_mixer"
*DATE "11:11:11 Fri 11 11, 1111"
*VENDOR "OpenRCX"
*PROGRAM "Parallel Extraction"
*VERSION "1.0"
*DESIGN_FLOW "NAME_SCOPE LOCAL" "PIN_CAP NONE"
*DIVIDER /
*DELIMITER :
*BUS_DELIMITER []
*T_UNIT 1 NS
*C_UNIT 1 PF
*R_UNIT 1 OHM
*L_UNIT 1 HENRY

*NAME_MAP
*3 clk
*4 ena
*5 rst_n
*6 ui_in[0]
*7 ui_in[1]
*8 ui_in[2]
*9 ui_in[3]
*10 ui_in[4]
*11 ui_in[5]
*12 ui_in[6]
*13 ui_in[7]
*14 uio_in[0]
*15 uio_in[1]
*16 uio_in[2]
*17 uio_in[3]
*18 uio_in[4]
*19 uio_in[5]
*20 uio_in[6]
*21 uio_in[7]
*22 net13
*23 net14
*24 net15
*25 net16
*26 net17
*27 net18
*28 net19
*29 net20
*30 uio_out[0]
*31 uio_out[1]
*32 uio_out[2]
*33 uio_out[3]
*34 uio_out[4]
*35 uio_out[5]
*36 uio_out[6]
*37 uio_out[7]
*38 uo_out[0]
*39 uo_out[1]
*40 uo_out[2]
*41 uo_out[3]
*42 uo_out[4]
*43 net10
*44 net11
*45 net12
*46 _0000_
*47 _0001_
*48 _0002_
*49 _0003_
*50 _0004_
*51 _0005_
*52 _0006_
*53 _0007_
*54 _0008_
*55 _0009_
*56 _0010_
*57 _0011_
*58 _0012_
*59 _0013_
*60 _0014_
*61 _0015_
*62 _0016_
*63 _0017_
*64 _0018_
*65 _0019_
*66 _0020_
*67 _0021_
*68 _0022_
*69 _0023_
*70 _0024_
*71 _0025_
*72 _0026_
*73 _0027_
*74 _0028_
*75 _0029_
*76 _0030_
*77 _0031_
*78 _0032_
*79 _0033_
*80 _0034_
*81 _0035_
*82 _0036_
*83 _0037_
*84 _0038_
*85 _0039_
*86 _0040_
*87 _0041_
*88 _0042_
*89 _0043_
*90 _0044_
*91 _0045_
*92 _0046_
*93 _0047_
*94 _0048_
*95 _0049_
*96 _0050_
*97 _0051_
*98 _0052_
*99 _0053_
*100 _0054_
*101 _0055_
*102 _0056_
*103 _0057_
*104 _0058_
*105 _0059_
*106 _0060_
*107 _0061_
*108 _0062_
*109 _0063_
*110 _0064_
*111 _0065_
*112 _0066_
*113 _0067_
*114 _0068_
*115 _0069_
*116 _0070_
*117 _0071_
*118 _0072_
*119 _0073_
*120 _0074_
*121 _0075_
*122 _0076_
*123 _0077_
*124 _0078_
*125 _0079_
*126 _0080_
*127 _0081_
*128 _0082_
*129 _0083_
*130 _0084_
*131 _0085_
*132 _0086_
*133 _0087_
*134 _0088_
*135 _0089_
*136 _0090_
*137 _0091_
*138 _0092_
*139 _0093_
*140 _0094_
*141 _0095_
*142 _0096_
*143 _0097_
*144 _0098_
*145 _0099_
*146 _0100_
*147 _0101_
*148 _0102_
*149 _0103_
*150 _0104_
*151 _0105_
*152 _0106_
*153 _0107_
*154 _0108_
*155 _0109_
*156 _0110_
*157 _0111_
*158 _0112_
*159 _0113_
*160 _0114_
*161 _0115_
*162 _0116_
*163 _0117_
*164 _0118_
*165 _0119_
*166 _0120_
*167 _0121_
*168 _0122_
*169 _0123_
*170 _0124_
*171 _0125_
*172 _0126_
*173 _0127_
*174 _0128_
*175 _0129_
*176 _0130_
*177 _0131_
*178 _0132_
*179 _0133_
*180 _0134_
*181 _0135_
*182 _0136_
*183 _0137_
*184 _0138_
*185 _0139_
*186 _0140_
*187 _0141_
*188 _0142_
*189 _0143_
*190 _0144_
*191 _0145_
*192 _0146_
*193 _0147_
*194 _0148_
*195 _0149_
*196 _0150_
*197 _0151_
*198 _0152_
*199 _0153_
*200 _0154_
*201 _0155_
*202 _0156_
*203 _0157_
*204 _0158_
*205 _0159_
*206 _0160_
*207 _0161_
*208 _0162_
*209 _0163_
*210 _0164_
*211 _0165_
*212 _0166_
*213 _0167_
*214 _0168_
*215 _0169_
*216 _0170_
*217 _0171_
*218 _0172_
*219 _0173_
*220 _0174_
*221 _0175_
*222 _0176_
*223 _0177_
*224 _0178_
*225 _0179_
*226 _0180_
*227 _0181_
*228 _0182_
*229 _0183_
*230 _0184_
*231 _0185_
*232 _0186_
*233 _0187_
*234 _0188_
*235 _0189_
*236 _0190_
*237 _0191_
*238 _0192_
*239 _0193_
*240 _0194_
*241 _0195_
*242 _0196_
*243 _0197_
*244 _0198_
*245 _0199_
*246 _0200_
*247 _0201_
*248 _0202_
*249 _0203_
*250 _0204_
*251 _0205_
*252 _0206_
*253 _0207_
*254 _0208_
*255 _0209_
*256 _0210_
*257 _0211_
*258 _0212_
*259 _0213_
*260 _0214_
*261 _0215_
*262 _0216_
*263 _0217_
*264 _0218_
*265 _0219_
*266 _0220_
*267 _0221_
*268 _0222_
*269 _0223_
*270 _0224_
*271 _0225_
*272 _0226_
*273 _0227_
*274 _0228_
*275 _0229_
*276 _0230_
*277 _0231_
*278 _0232_
*279 _0233_
*280 _0234_
*281 _0235_
*282 _0236_
*283 _0237_
*284 _0238_
*285 _0239_
*286 _0240_
*287 _0241_
*288 _0242_
*289 _0243_
*290 _0244_
*291 _0245_
*292 _0246_
*293 _0247_
*294 _0248_
*295 _0249_
*296 _0250_
*297 _0251_
*298 _0252_
*299 _0253_
*300 _0254_
*301 _0255_
*302 _0256_
*303 _0257_
*304 _0258_
*305 _0259_
*306 _0260_
*307 _0261_
*308 _0262_
*309 _0263_
*310 _0264_
*311 _0265_
*312 _0266_
*313 _0267_
*314 _0268_
*315 _0269_
*316 _0270_
*317 _0271_
*318 _0272_
*319 _0273_
*320 _0274_
*321 _0275_
*322 _0276_
*323 _0277_
*324 _0278_
*325 _0279_
*326 _0280_
*327 _0281_
*328 _0282_
*329 _0283_
*330 _0284_
*331 _0285_
*332 _0286_
*333 _0287_
*334 _0288_
*335 _0289_
*336 _0290_
*337 _0291_
*338 _0292_
*339 _0293_
*340 _0294_
*341 _0295_
*342 _0296_
*343 _0297_
*344 _0298_
*345 _0299_
*346 _0300_
*347 _0301_
*348 _0302_
*349 _0303_
*350 _0304_
*351 _0305_
*352 _0306_
*353 _0307_
*354 _0308_
*355 _0309_
*356 _0310_
*357 _0311_
*358 _0312_
*359 _0313_
*360 _0314_
*361 _0315_
*362 _0316_
*363 _0317_
*364 _0318_
*365 _0319_
*366 _0320_
*367 _0321_
*368 _0322_
*369 _0323_
*370 _0324_
*371 _0325_
*372 _0326_
*373 _0327_
*374 _0328_
*375 _0329_
*376 _0330_
*377 _0331_
*378 _0332_
*379 _0333_
*380 _0334_
*381 _0335_
*382 _0336_
*383 _0337_
*384 _0338_
*385 _0339_
*386 _0340_
*387 _0341_
*388 _0342_
*389 _0343_
*390 _0344_
*391 _0345_
*392 _0346_
*393 _0347_
*394 _0348_
*395 _0349_
*396 _0350_
*397 _0351_
*398 _0352_
*399 _0353_
*400 _0354_
*401 _0355_
*402 _0356_
*403 _0357_
*404 _0358_
*405 _0359_
*406 _0360_
*407 _0361_
*408 _0362_
*409 _0363_
*410 _0364_
*411 _0365_
*412 _0366_
*413 _0367_
*414 _0368_
*415 _0369_
*416 _0370_
*417 _0371_
*418 _0372_
*419 _0373_
*420 _0374_
*421 _0375_
*422 _0376_
*423 _0377_
*424 _0378_
*425 _0379_
*426 _0380_
*427 _0381_
*428 _0382_
*429 _0383_
*430 _0384_
*431 _0385_
*432 _0386_
*433 _0387_
*434 _0388_
*435 _0389_
*436 _0390_
*437 _0391_
*438 _0392_
*439 _0393_
*440 _0394_
*441 _0395_
*442 _0396_
*443 _0397_
*444 _0398_
*445 _0399_
*446 _0400_
*447 _0401_
*448 _0402_
*449 _0403_
*450 _0404_
*451 _0405_
*452 _0406_
*453 _0407_
*454 _0408_
*455 _0409_
*456 _0410_
*457 _0411_
*458 _0412_
*459 _0413_
*460 _0414_
*461 _0415_
*462 _0416_
*463 _0417_
*464 _0418_
*465 _0419_
*466 _0420_
*467 _0421_
*468 _0422_
*469 _0423_
*470 _0424_
*471 _0425_
*472 _0426_
*473 _0427_
*474 _0428_
*475 _0429_
*476 _0430_
*477 _0431_
*478 _0432_
*479 _0433_
*480 _0434_
*481 _0435_
*482 _0436_
*483 _0437_
*484 _0438_
*485 _0439_
*486 _0440_
*487 _0441_
*488 _0442_
*489 _0443_
*490 _0444_
*491 _0445_
*492 _0446_
*493 _0447_
*494 _0448_
*495 _0449_
*496 _0450_
*497 _0451_
*498 _0452_
*499 _0453_
*500 _0454_
*501 _0455_
*502 _0456_
*503 _0457_
*504 _0458_
*505 _0459_
*506 _0460_
*507 _0461_
*508 _0462_
*509 _0463_
*510 _0464_
*511 _0465_
*512 _0466_
*513 _0467_
*514 _0468_
*515 _0469_
*516 _0470_
*517 _0471_
*518 _0472_
*519 _0473_
*520 _0474_
*521 _0475_
*522 _0476_
*523 _0477_
*524 _0478_
*525 _0479_
*526 clknet_0_clk
*527 clknet_3_0__leaf_clk
*528 clknet_3_1__leaf_clk
*529 clknet_3_2__leaf_clk
*530 clknet_3_3__leaf_clk
*531 clknet_3_4__leaf_clk
*532 clknet_3_5__leaf_clk
*533 clknet_3_6__leaf_clk
*534 clknet_3_7__leaf_clk
*535 net1
*536 net2
*537 net21
*538 net22
*539 net23
*540 net24
*541 net25
*542 net26
*543 net27
*544 net28
*545 net29
*546 net3
*547 net30
*548 net31
*549 net32
*550 net33
*551 net34
*552 net35
*553 net36
*554 net37
*555 net38
*556 net39
*557 net4
*558 net40
*559 net41
*560 net42
*561 net43
*562 net44
*563 net45
*564 net46
*565 net47
*566 net48
*567 net49
*568 net5
*569 net50
*570 net51
*571 net52
*572 net53
*573 net54
*574 net55
*575 net56
*576 net57
*577 net58
*578 net59
*579 net6
*580 net60
*581 net61
*582 net62
*583 net63
*584 net64
*585 net65
*586 net66
*587 net67
*588 net68
*589 net69
*590 net7
*591 net70
*592 net71
*593 net72
*594 net73
*595 net8
*596 net9
*597 rgb_mixer\.debounce0_a\.button_hist\[0\]
*598 rgb_mixer\.debounce0_a\.button_hist\[1\]
*599 rgb_mixer\.debounce0_a\.button_hist\[2\]
*600 rgb_mixer\.debounce0_a\.button_hist\[3\]
*601 rgb_mixer\.debounce0_a\.button_hist\[4\]
*602 rgb_mixer\.debounce0_a\.button_hist\[5\]
*603 rgb_mixer\.debounce0_a\.button_hist\[6\]
*604 rgb_mixer\.debounce0_a\.button_hist\[7\]
*605 rgb_mixer\.debounce0_a\.debounced
*606 rgb_mixer\.debounce0_b\.button_hist\[0\]
*607 rgb_mixer\.debounce0_b\.button_hist\[1\]
*608 rgb_mixer\.debounce0_b\.button_hist\[2\]
*609 rgb_mixer\.debounce0_b\.button_hist\[3\]
*610 rgb_mixer\.debounce0_b\.button_hist\[4\]
*611 rgb_mixer\.debounce0_b\.button_hist\[5\]
*612 rgb_mixer\.debounce0_b\.button_hist\[6\]
*613 rgb_mixer\.debounce0_b\.button_hist\[7\]
*614 rgb_mixer\.debounce0_b\.debounced
*615 rgb_mixer\.debounce1_a\.button_hist\[0\]
*616 rgb_mixer\.debounce1_a\.button_hist\[1\]
*617 rgb_mixer\.debounce1_a\.button_hist\[2\]
*618 rgb_mixer\.debounce1_a\.button_hist\[3\]
*619 rgb_mixer\.debounce1_a\.button_hist\[4\]
*620 rgb_mixer\.debounce1_a\.button_hist\[5\]
*621 rgb_mixer\.debounce1_a\.button_hist\[6\]
*622 rgb_mixer\.debounce1_a\.button_hist\[7\]
*623 rgb_mixer\.debounce1_a\.debounced
*624 rgb_mixer\.debounce1_b\.button_hist\[0\]
*625 rgb_mixer\.debounce1_b\.button_hist\[1\]
*626 rgb_mixer\.debounce1_b\.button_hist\[2\]
*627 rgb_mixer\.debounce1_b\.button_hist\[3\]
*628 rgb_mixer\.debounce1_b\.button_hist\[4\]
*629 rgb_mixer\.debounce1_b\.button_hist\[5\]
*630 rgb_mixer\.debounce1_b\.button_hist\[6\]
*631 rgb_mixer\.debounce1_b\.button_hist\[7\]
*632 rgb_mixer\.debounce1_b\.debounced
*633 rgb_mixer\.debounce2_a\.button_hist\[0\]
*634 rgb_mixer\.debounce2_a\.button_hist\[1\]
*635 rgb_mixer\.debounce2_a\.button_hist\[2\]
*636 rgb_mixer\.debounce2_a\.button_hist\[3\]
*637 rgb_mixer\.debounce2_a\.button_hist\[4\]
*638 rgb_mixer\.debounce2_a\.button_hist\[5\]
*639 rgb_mixer\.debounce2_a\.button_hist\[6\]
*640 rgb_mixer\.debounce2_a\.button_hist\[7\]
*641 rgb_mixer\.debounce2_a\.debounced
*642 rgb_mixer\.debounce2_b\.button_hist\[0\]
*643 rgb_mixer\.debounce2_b\.button_hist\[1\]
*644 rgb_mixer\.debounce2_b\.button_hist\[2\]
*645 rgb_mixer\.debounce2_b\.button_hist\[3\]
*646 rgb_mixer\.debounce2_b\.button_hist\[4\]
*647 rgb_mixer\.debounce2_b\.button_hist\[5\]
*648 rgb_mixer\.debounce2_b\.button_hist\[6\]
*649 rgb_mixer\.debounce2_b\.button_hist\[7\]
*650 rgb_mixer\.debounce2_b\.debounced
*651 rgb_mixer\.debounce_a
*652 rgb_mixer\.debounce_b
*653 rgb_mixer\.enc0\[0\]
*654 rgb_mixer\.enc0\[1\]
*655 rgb_mixer\.enc0\[2\]
*656 rgb_mixer\.enc0\[3\]
*657 rgb_mixer\.enc0\[4\]
*658 rgb_mixer\.enc0\[5\]
*659 rgb_mixer\.enc0\[6\]
*660 rgb_mixer\.enc0\[7\]
*661 rgb_mixer\.enc1\[0\]
*662 rgb_mixer\.enc1\[1\]
*663 rgb_mixer\.enc1\[2\]
*664 rgb_mixer\.enc1\[3\]
*665 rgb_mixer\.enc1\[4\]
*666 rgb_mixer\.enc1\[5\]
*667 rgb_mixer\.enc1\[6\]
*668 rgb_mixer\.enc1\[7\]
*669 rgb_mixer\.enc2\[0\]
*670 rgb_mixer\.enc2\[1\]
*671 rgb_mixer\.enc2\[2\]
*672 rgb_mixer\.enc2\[3\]
*673 rgb_mixer\.enc2\[4\]
*674 rgb_mixer\.enc2\[5\]
*675 rgb_mixer\.enc2\[6\]
*676 rgb_mixer\.enc2\[7\]
*677 rgb_mixer\.encoder0\.old_a
*678 rgb_mixer\.encoder0\.old_b
*679 rgb_mixer\.encoder1\.old_a
*680 rgb_mixer\.encoder1\.old_b
*681 rgb_mixer\.encoder2\.old_a
*682 rgb_mixer\.encoder2\.old_b
*683 rgb_mixer\.pwm0\.count\[0\]
*684 rgb_mixer\.pwm0\.count\[1\]
*685 rgb_mixer\.pwm0\.count\[2\]
*686 rgb_mixer\.pwm0\.count\[3\]
*687 rgb_mixer\.pwm0\.count\[4\]
*688 rgb_mixer\.pwm0\.count\[5\]
*689 rgb_mixer\.pwm0\.count\[6\]
*690 rgb_mixer\.pwm0\.count\[7\]
*691 rgb_mixer\.pwm0\.out
*692 rgb_mixer\.pwm1\.count\[0\]
*693 rgb_mixer\.pwm1\.count\[1\]
*694 rgb_mixer\.pwm1\.count\[2\]
*695 rgb_mixer\.pwm1\.count\[3\]
*696 rgb_mixer\.pwm1\.count\[4\]
*697 rgb_mixer\.pwm1\.count\[5\]
*698 rgb_mixer\.pwm1\.count\[6\]
*699 rgb_mixer\.pwm1\.count\[7\]
*700 rgb_mixer\.pwm1\.out
*701 rgb_mixer\.pwm2\.count\[0\]
*702 rgb_mixer\.pwm2\.count\[1\]
*703 rgb_mixer\.pwm2\.count\[2\]
*704 rgb_mixer\.pwm2\.count\[3\]
*705 rgb_mixer\.pwm2\.count\[4\]
*706 rgb_mixer\.pwm2\.count\[5\]
*707 rgb_mixer\.pwm2\.count\[6\]
*708 rgb_mixer\.pwm2\.count\[7\]
*709 rgb_mixer\.pwm2\.out
*710 FILLER_0_0_109
*711 FILLER_0_0_113
*712 FILLER_0_0_125
*713 FILLER_0_0_137
*714 FILLER_0_0_141
*715 FILLER_0_0_15
*716 FILLER_0_0_153
*717 FILLER_0_0_165
*718 FILLER_0_0_169
*719 FILLER_0_0_181
*720 FILLER_0_0_193
*721 FILLER_0_0_197
*722 FILLER_0_0_209
*723 FILLER_0_0_221
*724 FILLER_0_0_225
*725 FILLER_0_0_237
*726 FILLER_0_0_249
*727 FILLER_0_0_253
*728 FILLER_0_0_265
*729 FILLER_0_0_27
*730 FILLER_0_0_277
*731 FILLER_0_0_281
*732 FILLER_0_0_29
*733 FILLER_0_0_293
*734 FILLER_0_0_3
*735 FILLER_0_0_305
*736 FILLER_0_0_309
*737 FILLER_0_0_321
*738 FILLER_0_0_333
*739 FILLER_0_0_337
*740 FILLER_0_0_349
*741 FILLER_0_0_41
*742 FILLER_0_0_53
*743 FILLER_0_0_57
*744 FILLER_0_0_69
*745 FILLER_0_0_81
*746 FILLER_0_0_85
*747 FILLER_0_0_97
*748 FILLER_0_10_109
*749 FILLER_0_10_121
*750 FILLER_0_10_133
*751 FILLER_0_10_139
*752 FILLER_0_10_141
*753 FILLER_0_10_15
*754 FILLER_0_10_153
*755 FILLER_0_10_165
*756 FILLER_0_10_177
*757 FILLER_0_10_189
*758 FILLER_0_10_195
*759 FILLER_0_10_197
*760 FILLER_0_10_209
*761 FILLER_0_10_221
*762 FILLER_0_10_233
*763 FILLER_0_10_245
*764 FILLER_0_10_251
*765 FILLER_0_10_253
*766 FILLER_0_10_265
*767 FILLER_0_10_27
*768 FILLER_0_10_277
*769 FILLER_0_10_289
*770 FILLER_0_10_29
*771 FILLER_0_10_3
*772 FILLER_0_10_301
*773 FILLER_0_10_307
*774 FILLER_0_10_309
*775 FILLER_0_10_321
*776 FILLER_0_10_333
*777 FILLER_0_10_345
*778 FILLER_0_10_41
*779 FILLER_0_10_53
*780 FILLER_0_10_65
*781 FILLER_0_10_77
*782 FILLER_0_10_83
*783 FILLER_0_10_85
*784 FILLER_0_10_97
*785 FILLER_0_11_105
*786 FILLER_0_11_111
*787 FILLER_0_11_113
*788 FILLER_0_11_125
*789 FILLER_0_11_137
*790 FILLER_0_11_149
*791 FILLER_0_11_15
*792 FILLER_0_11_161
*793 FILLER_0_11_167
*794 FILLER_0_11_169
*795 FILLER_0_11_181
*796 FILLER_0_11_193
*797 FILLER_0_11_205
*798 FILLER_0_11_217
*799 FILLER_0_11_223
*800 FILLER_0_11_225
*801 FILLER_0_11_237
*802 FILLER_0_11_249
*803 FILLER_0_11_261
*804 FILLER_0_11_27
*805 FILLER_0_11_273
*806 FILLER_0_11_279
*807 FILLER_0_11_281
*808 FILLER_0_11_293
*809 FILLER_0_11_3
*810 FILLER_0_11_305
*811 FILLER_0_11_317
*812 FILLER_0_11_329
*813 FILLER_0_11_335
*814 FILLER_0_11_337
*815 FILLER_0_11_349
*816 FILLER_0_11_39
*817 FILLER_0_11_51
*818 FILLER_0_11_55
*819 FILLER_0_11_57
*820 FILLER_0_11_69
*821 FILLER_0_11_81
*822 FILLER_0_11_93
*823 FILLER_0_12_109
*824 FILLER_0_12_121
*825 FILLER_0_12_133
*826 FILLER_0_12_139
*827 FILLER_0_12_141
*828 FILLER_0_12_15
*829 FILLER_0_12_153
*830 FILLER_0_12_165
*831 FILLER_0_12_177
*832 FILLER_0_12_189
*833 FILLER_0_12_195
*834 FILLER_0_12_197
*835 FILLER_0_12_209
*836 FILLER_0_12_221
*837 FILLER_0_12_233
*838 FILLER_0_12_245
*839 FILLER_0_12_251
*840 FILLER_0_12_253
*841 FILLER_0_12_265
*842 FILLER_0_12_27
*843 FILLER_0_12_277
*844 FILLER_0_12_289
*845 FILLER_0_12_29
*846 FILLER_0_12_3
*847 FILLER_0_12_301
*848 FILLER_0_12_307
*849 FILLER_0_12_309
*850 FILLER_0_12_321
*851 FILLER_0_12_333
*852 FILLER_0_12_345
*853 FILLER_0_12_41
*854 FILLER_0_12_53
*855 FILLER_0_12_65
*856 FILLER_0_12_77
*857 FILLER_0_12_83
*858 FILLER_0_12_85
*859 FILLER_0_12_97
*860 FILLER_0_13_105
*861 FILLER_0_13_111
*862 FILLER_0_13_113
*863 FILLER_0_13_125
*864 FILLER_0_13_137
*865 FILLER_0_13_149
*866 FILLER_0_13_15
*867 FILLER_0_13_161
*868 FILLER_0_13_167
*869 FILLER_0_13_169
*870 FILLER_0_13_181
*871 FILLER_0_13_193
*872 FILLER_0_13_205
*873 FILLER_0_13_209
*874 FILLER_0_13_215
*875 FILLER_0_13_223
*876 FILLER_0_13_225
*877 FILLER_0_13_229
*878 FILLER_0_13_243
*879 FILLER_0_13_255
*880 FILLER_0_13_261
*881 FILLER_0_13_27
*882 FILLER_0_13_273
*883 FILLER_0_13_279
*884 FILLER_0_13_281
*885 FILLER_0_13_293
*886 FILLER_0_13_3
*887 FILLER_0_13_305
*888 FILLER_0_13_317
*889 FILLER_0_13_329
*890 FILLER_0_13_335
*891 FILLER_0_13_337
*892 FILLER_0_13_349
*893 FILLER_0_13_39
*894 FILLER_0_13_51
*895 FILLER_0_13_55
*896 FILLER_0_13_57
*897 FILLER_0_13_69
*898 FILLER_0_13_81
*899 FILLER_0_13_93
*900 FILLER_0_14_104
*901 FILLER_0_14_137
*902 FILLER_0_14_141
*903 FILLER_0_14_148
*904 FILLER_0_14_15
*905 FILLER_0_14_184
*906 FILLER_0_14_192
*907 FILLER_0_14_229
*908 FILLER_0_14_27
*909 FILLER_0_14_277
*910 FILLER_0_14_289
*911 FILLER_0_14_29
*912 FILLER_0_14_3
*913 FILLER_0_14_301
*914 FILLER_0_14_307
*915 FILLER_0_14_309
*916 FILLER_0_14_321
*917 FILLER_0_14_333
*918 FILLER_0_14_345
*919 FILLER_0_14_41
*920 FILLER_0_14_53
*921 FILLER_0_14_65
*922 FILLER_0_14_77
*923 FILLER_0_14_83
*924 FILLER_0_14_85
*925 FILLER_0_14_93
*926 FILLER_0_15_105
*927 FILLER_0_15_111
*928 FILLER_0_15_113
*929 FILLER_0_15_125
*930 FILLER_0_15_137
*931 FILLER_0_15_145
*932 FILLER_0_15_15
*933 FILLER_0_15_157
*934 FILLER_0_15_165
*935 FILLER_0_15_169
*936 FILLER_0_15_181
*937 FILLER_0_15_193
*938 FILLER_0_15_201
*939 FILLER_0_15_222
*940 FILLER_0_15_236
*941 FILLER_0_15_251
*942 FILLER_0_15_255
*943 FILLER_0_15_259
*944 FILLER_0_15_27
*945 FILLER_0_15_279
*946 FILLER_0_15_297
*947 FILLER_0_15_3
*948 FILLER_0_15_312
*949 FILLER_0_15_324
*950 FILLER_0_15_337
*951 FILLER_0_15_349
*952 FILLER_0_15_39
*953 FILLER_0_15_51
*954 FILLER_0_15_55
*955 FILLER_0_15_57
*956 FILLER_0_15_66
*957 FILLER_0_15_78
*958 FILLER_0_15_90
*959 FILLER_0_16_108
*960 FILLER_0_16_123
*961 FILLER_0_16_131
*962 FILLER_0_16_137
*963 FILLER_0_16_141
*964 FILLER_0_16_146
*965 FILLER_0_16_15
*966 FILLER_0_16_156
*967 FILLER_0_16_164
*968 FILLER_0_16_183
*969 FILLER_0_16_195
*970 FILLER_0_16_197
*971 FILLER_0_16_221
*972 FILLER_0_16_233
*973 FILLER_0_16_253
*974 FILLER_0_16_27
*975 FILLER_0_16_282
*976 FILLER_0_16_29
*977 FILLER_0_16_3
*978 FILLER_0_16_302
*979 FILLER_0_16_309
*980 FILLER_0_16_326
*981 FILLER_0_16_338
*982 FILLER_0_16_350
*983 FILLER_0_16_36
*984 FILLER_0_16_48
*985 FILLER_0_16_52
*986 FILLER_0_16_61
*987 FILLER_0_16_76
*988 FILLER_0_16_85
*989 FILLER_0_16_96
*990 FILLER_0_17_109
*991 FILLER_0_17_147
*992 FILLER_0_17_15
*993 FILLER_0_17_153
*994 FILLER_0_17_178
*995 FILLER_0_17_203
*996 FILLER_0_17_211
*997 FILLER_0_17_218
*998 FILLER_0_17_225
*999 FILLER_0_17_237
*1000 FILLER_0_17_244
*1001 FILLER_0_17_256
*1002 FILLER_0_17_278
*1003 FILLER_0_17_281
*1004 FILLER_0_17_291
*1005 FILLER_0_17_3
*1006 FILLER_0_17_310
*1007 FILLER_0_17_318
*1008 FILLER_0_17_335
*1009 FILLER_0_17_337
*1010 FILLER_0_17_349
*1011 FILLER_0_17_54
*1012 FILLER_0_17_57
*1013 FILLER_0_17_69
*1014 FILLER_0_17_81
*1015 FILLER_0_17_93
*1016 FILLER_0_18_112
*1017 FILLER_0_18_136
*1018 FILLER_0_18_15
*1019 FILLER_0_18_164
*1020 FILLER_0_18_172
*1021 FILLER_0_18_177
*1022 FILLER_0_18_189
*1023 FILLER_0_18_195
*1024 FILLER_0_18_197
*1025 FILLER_0_18_224
*1026 FILLER_0_18_248
*1027 FILLER_0_18_27
*1028 FILLER_0_18_285
*1029 FILLER_0_18_29
*1030 FILLER_0_18_293
*1031 FILLER_0_18_3
*1032 FILLER_0_18_303
*1033 FILLER_0_18_307
*1034 FILLER_0_18_328
*1035 FILLER_0_18_345
*1036 FILLER_0_18_41
*1037 FILLER_0_18_53
*1038 FILLER_0_18_64
*1039 FILLER_0_18_80
*1040 FILLER_0_18_85
*1041 FILLER_0_18_89
*1042 FILLER_0_19_103
*1043 FILLER_0_19_12
*1044 FILLER_0_19_133
*1045 FILLER_0_19_145
*1046 FILLER_0_19_186
*1047 FILLER_0_19_204
*1048 FILLER_0_19_218
*1049 FILLER_0_19_230
*1050 FILLER_0_19_251
*1051 FILLER_0_19_258
*1052 FILLER_0_19_294
*1053 FILLER_0_19_3
*1054 FILLER_0_19_312
*1055 FILLER_0_19_337
*1056 FILLER_0_19_349
*1057 FILLER_0_19_48
*1058 FILLER_0_19_54
*1059 FILLER_0_19_57
*1060 FILLER_0_19_69
*1061 FILLER_0_19_80
*1062 FILLER_0_1_105
*1063 FILLER_0_1_111
*1064 FILLER_0_1_113
*1065 FILLER_0_1_125
*1066 FILLER_0_1_137
*1067 FILLER_0_1_149
*1068 FILLER_0_1_15
*1069 FILLER_0_1_161
*1070 FILLER_0_1_167
*1071 FILLER_0_1_169
*1072 FILLER_0_1_181
*1073 FILLER_0_1_193
*1074 FILLER_0_1_205
*1075 FILLER_0_1_217
*1076 FILLER_0_1_223
*1077 FILLER_0_1_225
*1078 FILLER_0_1_237
*1079 FILLER_0_1_249
*1080 FILLER_0_1_261
*1081 FILLER_0_1_27
*1082 FILLER_0_1_273
*1083 FILLER_0_1_279
*1084 FILLER_0_1_281
*1085 FILLER_0_1_293
*1086 FILLER_0_1_3
*1087 FILLER_0_1_305
*1088 FILLER_0_1_317
*1089 FILLER_0_1_329
*1090 FILLER_0_1_335
*1091 FILLER_0_1_337
*1092 FILLER_0_1_349
*1093 FILLER_0_1_39
*1094 FILLER_0_1_51
*1095 FILLER_0_1_55
*1096 FILLER_0_1_57
*1097 FILLER_0_1_69
*1098 FILLER_0_1_81
*1099 FILLER_0_1_93
*1100 FILLER_0_20_101
*1101 FILLER_0_20_110
*1102 FILLER_0_20_122
*1103 FILLER_0_20_129
*1104 FILLER_0_20_137
*1105 FILLER_0_20_149
*1106 FILLER_0_20_157
*1107 FILLER_0_20_166
*1108 FILLER_0_20_174
*1109 FILLER_0_20_186
*1110 FILLER_0_20_190
*1111 FILLER_0_20_194
*1112 FILLER_0_20_197
*1113 FILLER_0_20_204
*1114 FILLER_0_20_21
*1115 FILLER_0_20_216
*1116 FILLER_0_20_224
*1117 FILLER_0_20_244
*1118 FILLER_0_20_248
*1119 FILLER_0_20_269
*1120 FILLER_0_20_27
*1121 FILLER_0_20_289
*1122 FILLER_0_20_3
*1123 FILLER_0_20_307
*1124 FILLER_0_20_338
*1125 FILLER_0_20_34
*1126 FILLER_0_20_350
*1127 FILLER_0_20_45
*1128 FILLER_0_20_53
*1129 FILLER_0_20_74
*1130 FILLER_0_20_83
*1131 FILLER_0_21_108
*1132 FILLER_0_21_128
*1133 FILLER_0_21_141
*1134 FILLER_0_21_16
*1135 FILLER_0_21_163
*1136 FILLER_0_21_167
*1137 FILLER_0_21_183
*1138 FILLER_0_21_218
*1139 FILLER_0_21_233
*1140 FILLER_0_21_24
*1141 FILLER_0_21_241
*1142 FILLER_0_21_249
*1143 FILLER_0_21_253
*1144 FILLER_0_21_262
*1145 FILLER_0_21_274
*1146 FILLER_0_21_281
*1147 FILLER_0_21_3
*1148 FILLER_0_21_306
*1149 FILLER_0_21_334
*1150 FILLER_0_21_340
*1151 FILLER_0_21_348
*1152 FILLER_0_21_39
*1153 FILLER_0_21_54
*1154 FILLER_0_21_60
*1155 FILLER_0_21_90
*1156 FILLER_0_21_98
*1157 FILLER_0_22_103
*1158 FILLER_0_22_115
*1159 FILLER_0_22_127
*1160 FILLER_0_22_135
*1161 FILLER_0_22_139
*1162 FILLER_0_22_141
*1163 FILLER_0_22_153
*1164 FILLER_0_22_165
*1165 FILLER_0_22_176
*1166 FILLER_0_22_188
*1167 FILLER_0_22_195
*1168 FILLER_0_22_197
*1169 FILLER_0_22_203
*1170 FILLER_0_22_208
*1171 FILLER_0_22_212
*1172 FILLER_0_22_217
*1173 FILLER_0_22_22
*1174 FILLER_0_22_229
*1175 FILLER_0_22_239
*1176 FILLER_0_22_251
*1177 FILLER_0_22_253
*1178 FILLER_0_22_264
*1179 FILLER_0_22_268
*1180 FILLER_0_22_288
*1181 FILLER_0_22_29
*1182 FILLER_0_22_3
*1183 FILLER_0_22_309
*1184 FILLER_0_22_317
*1185 FILLER_0_22_326
*1186 FILLER_0_22_36
*1187 FILLER_0_22_44
*1188 FILLER_0_22_53
*1189 FILLER_0_22_72
*1190 FILLER_0_22_85
*1191 FILLER_0_23_102
*1192 FILLER_0_23_110
*1193 FILLER_0_23_12
*1194 FILLER_0_23_120
*1195 FILLER_0_23_124
*1196 FILLER_0_23_128
*1197 FILLER_0_23_140
*1198 FILLER_0_23_152
*1199 FILLER_0_23_160
*1200 FILLER_0_23_188
*1201 FILLER_0_23_196
*1202 FILLER_0_23_20
*1203 FILLER_0_23_204
*1204 FILLER_0_23_225
*1205 FILLER_0_23_267
*1206 FILLER_0_23_274
*1207 FILLER_0_23_281
*1208 FILLER_0_23_287
*1209 FILLER_0_23_3
*1210 FILLER_0_23_312
*1211 FILLER_0_23_327
*1212 FILLER_0_23_335
*1213 FILLER_0_23_342
*1214 FILLER_0_23_57
*1215 FILLER_0_23_65
*1216 FILLER_0_23_75
*1217 FILLER_0_23_81
*1218 FILLER_0_23_90
*1219 FILLER_0_24_111
*1220 FILLER_0_24_134
*1221 FILLER_0_24_158
*1222 FILLER_0_24_170
*1223 FILLER_0_24_182
*1224 FILLER_0_24_190
*1225 FILLER_0_24_206
*1226 FILLER_0_24_214
*1227 FILLER_0_24_22
*1228 FILLER_0_24_223
*1229 FILLER_0_24_231
*1230 FILLER_0_24_241
*1231 FILLER_0_24_245
*1232 FILLER_0_24_249
*1233 FILLER_0_24_253
*1234 FILLER_0_24_260
*1235 FILLER_0_24_268
*1236 FILLER_0_24_286
*1237 FILLER_0_24_29
*1238 FILLER_0_24_3
*1239 FILLER_0_24_306
*1240 FILLER_0_24_312
*1241 FILLER_0_24_320
*1242 FILLER_0_24_41
*1243 FILLER_0_24_53
*1244 FILLER_0_24_65
*1245 FILLER_0_24_77
*1246 FILLER_0_24_85
*1247 FILLER_0_25_101
*1248 FILLER_0_25_109
*1249 FILLER_0_25_113
*1250 FILLER_0_25_121
*1251 FILLER_0_25_13
*1252 FILLER_0_25_133
*1253 FILLER_0_25_145
*1254 FILLER_0_25_153
*1255 FILLER_0_25_167
*1256 FILLER_0_25_169
*1257 FILLER_0_25_184
*1258 FILLER_0_25_189
*1259 FILLER_0_25_232
*1260 FILLER_0_25_256
*1261 FILLER_0_25_274
*1262 FILLER_0_25_297
*1263 FILLER_0_25_3
*1264 FILLER_0_25_301
*1265 FILLER_0_25_323
*1266 FILLER_0_25_335
*1267 FILLER_0_25_340
*1268 FILLER_0_25_348
*1269 FILLER_0_25_37
*1270 FILLER_0_25_52
*1271 FILLER_0_25_57
*1272 FILLER_0_25_73
*1273 FILLER_0_25_81
*1274 FILLER_0_25_89
*1275 FILLER_0_26_109
*1276 FILLER_0_26_138
*1277 FILLER_0_26_15
*1278 FILLER_0_26_157
*1279 FILLER_0_26_161
*1280 FILLER_0_26_197
*1281 FILLER_0_26_203
*1282 FILLER_0_26_211
*1283 FILLER_0_26_222
*1284 FILLER_0_26_234
*1285 FILLER_0_26_241
*1286 FILLER_0_26_249
*1287 FILLER_0_26_253
*1288 FILLER_0_26_268
*1289 FILLER_0_26_27
*1290 FILLER_0_26_280
*1291 FILLER_0_26_29
*1292 FILLER_0_26_3
*1293 FILLER_0_26_305
*1294 FILLER_0_26_309
*1295 FILLER_0_26_331
*1296 FILLER_0_26_48
*1297 FILLER_0_26_63
*1298 FILLER_0_26_74
*1299 FILLER_0_26_92
*1300 FILLER_0_27_103
*1301 FILLER_0_27_108
*1302 FILLER_0_27_113
*1303 FILLER_0_27_121
*1304 FILLER_0_27_126
*1305 FILLER_0_27_138
*1306 FILLER_0_27_148
*1307 FILLER_0_27_159
*1308 FILLER_0_27_167
*1309 FILLER_0_27_169
*1310 FILLER_0_27_173
*1311 FILLER_0_27_182
*1312 FILLER_0_27_190
*1313 FILLER_0_27_199
*1314 FILLER_0_27_203
*1315 FILLER_0_27_215
*1316 FILLER_0_27_225
*1317 FILLER_0_27_247
*1318 FILLER_0_27_253
*1319 FILLER_0_27_262
*1320 FILLER_0_27_27
*1321 FILLER_0_27_278
*1322 FILLER_0_27_318
*1323 FILLER_0_27_330
*1324 FILLER_0_27_350
*1325 FILLER_0_27_37
*1326 FILLER_0_27_57
*1327 FILLER_0_27_61
*1328 FILLER_0_27_71
*1329 FILLER_0_27_83
*1330 FILLER_0_27_91
*1331 FILLER_0_27_95
*1332 FILLER_0_28_104
*1333 FILLER_0_28_11
*1334 FILLER_0_28_115
*1335 FILLER_0_28_119
*1336 FILLER_0_28_156
*1337 FILLER_0_28_176
*1338 FILLER_0_28_193
*1339 FILLER_0_28_197
*1340 FILLER_0_28_23
*1341 FILLER_0_28_232
*1342 FILLER_0_28_242
*1343 FILLER_0_28_249
*1344 FILLER_0_28_27
*1345 FILLER_0_28_280
*1346 FILLER_0_28_3
*1347 FILLER_0_28_309
*1348 FILLER_0_28_32
*1349 FILLER_0_28_323
*1350 FILLER_0_28_331
*1351 FILLER_0_28_36
*1352 FILLER_0_28_40
*1353 FILLER_0_28_48
*1354 FILLER_0_28_7
*1355 FILLER_0_28_85
*1356 FILLER_0_29_104
*1357 FILLER_0_29_108
*1358 FILLER_0_29_133
*1359 FILLER_0_29_140
*1360 FILLER_0_29_152
*1361 FILLER_0_29_159
*1362 FILLER_0_29_167
*1363 FILLER_0_29_169
*1364 FILLER_0_29_181
*1365 FILLER_0_29_20
*1366 FILLER_0_29_204
*1367 FILLER_0_29_212
*1368 FILLER_0_29_219
*1369 FILLER_0_29_223
*1370 FILLER_0_29_225
*1371 FILLER_0_29_251
*1372 FILLER_0_29_257
*1373 FILLER_0_29_281
*1374 FILLER_0_29_3
*1375 FILLER_0_29_304
*1376 FILLER_0_29_317
*1377 FILLER_0_29_334
*1378 FILLER_0_29_342
*1379 FILLER_0_29_38
*1380 FILLER_0_29_46
*1381 FILLER_0_29_54
*1382 FILLER_0_29_77
*1383 FILLER_0_29_92
*1384 FILLER_0_2_109
*1385 FILLER_0_2_121
*1386 FILLER_0_2_133
*1387 FILLER_0_2_139
*1388 FILLER_0_2_141
*1389 FILLER_0_2_15
*1390 FILLER_0_2_153
*1391 FILLER_0_2_165
*1392 FILLER_0_2_177
*1393 FILLER_0_2_189
*1394 FILLER_0_2_195
*1395 FILLER_0_2_197
*1396 FILLER_0_2_209
*1397 FILLER_0_2_221
*1398 FILLER_0_2_233
*1399 FILLER_0_2_245
*1400 FILLER_0_2_251
*1401 FILLER_0_2_253
*1402 FILLER_0_2_265
*1403 FILLER_0_2_27
*1404 FILLER_0_2_277
*1405 FILLER_0_2_289
*1406 FILLER_0_2_29
*1407 FILLER_0_2_3
*1408 FILLER_0_2_301
*1409 FILLER_0_2_307
*1410 FILLER_0_2_309
*1411 FILLER_0_2_321
*1412 FILLER_0_2_333
*1413 FILLER_0_2_345
*1414 FILLER_0_2_41
*1415 FILLER_0_2_53
*1416 FILLER_0_2_65
*1417 FILLER_0_2_77
*1418 FILLER_0_2_83
*1419 FILLER_0_2_85
*1420 FILLER_0_2_97
*1421 FILLER_0_30_103
*1422 FILLER_0_30_109
*1423 FILLER_0_30_12
*1424 FILLER_0_30_126
*1425 FILLER_0_30_139
*1426 FILLER_0_30_141
*1427 FILLER_0_30_156
*1428 FILLER_0_30_184
*1429 FILLER_0_30_232
*1430 FILLER_0_30_24
*1431 FILLER_0_30_258
*1432 FILLER_0_30_280
*1433 FILLER_0_30_293
*1434 FILLER_0_30_3
*1435 FILLER_0_30_301
*1436 FILLER_0_30_309
*1437 FILLER_0_30_324
*1438 FILLER_0_30_332
*1439 FILLER_0_30_41
*1440 FILLER_0_30_62
*1441 FILLER_0_30_79
*1442 FILLER_0_30_83
*1443 FILLER_0_30_85
*1444 FILLER_0_31_103
*1445 FILLER_0_31_111
*1446 FILLER_0_31_113
*1447 FILLER_0_31_125
*1448 FILLER_0_31_131
*1449 FILLER_0_31_143
*1450 FILLER_0_31_151
*1451 FILLER_0_31_163
*1452 FILLER_0_31_167
*1453 FILLER_0_31_169
*1454 FILLER_0_31_173
*1455 FILLER_0_31_177
*1456 FILLER_0_31_185
*1457 FILLER_0_31_189
*1458 FILLER_0_31_198
*1459 FILLER_0_31_21
*1460 FILLER_0_31_210
*1461 FILLER_0_31_222
*1462 FILLER_0_31_239
*1463 FILLER_0_31_251
*1464 FILLER_0_31_257
*1465 FILLER_0_31_27
*1466 FILLER_0_31_278
*1467 FILLER_0_31_3
*1468 FILLER_0_31_313
*1469 FILLER_0_31_33
*1470 FILLER_0_31_333
*1471 FILLER_0_31_350
*1472 FILLER_0_31_39
*1473 FILLER_0_31_43
*1474 FILLER_0_31_52
*1475 FILLER_0_31_57
*1476 FILLER_0_31_69
*1477 FILLER_0_31_80
*1478 FILLER_0_31_88
*1479 FILLER_0_31_92
*1480 FILLER_0_32_104
*1481 FILLER_0_32_11
*1482 FILLER_0_32_112
*1483 FILLER_0_32_120
*1484 FILLER_0_32_134
*1485 FILLER_0_32_141
*1486 FILLER_0_32_145
*1487 FILLER_0_32_165
*1488 FILLER_0_32_188
*1489 FILLER_0_32_193
*1490 FILLER_0_32_197
*1491 FILLER_0_32_215
*1492 FILLER_0_32_23
*1493 FILLER_0_32_231
*1494 FILLER_0_32_235
*1495 FILLER_0_32_253
*1496 FILLER_0_32_280
*1497 FILLER_0_32_295
*1498 FILLER_0_32_3
*1499 FILLER_0_32_307
*1500 FILLER_0_32_317
*1501 FILLER_0_32_323
*1502 FILLER_0_32_332
*1503 FILLER_0_32_346
*1504 FILLER_0_32_350
*1505 FILLER_0_32_45
*1506 FILLER_0_32_53
*1507 FILLER_0_32_7
*1508 FILLER_0_32_72
*1509 FILLER_0_32_85
*1510 FILLER_0_32_93
*1511 FILLER_0_33_108
*1512 FILLER_0_33_113
*1513 FILLER_0_33_121
*1514 FILLER_0_33_128
*1515 FILLER_0_33_136
*1516 FILLER_0_33_140
*1517 FILLER_0_33_157
*1518 FILLER_0_33_165
*1519 FILLER_0_33_172
*1520 FILLER_0_33_180
*1521 FILLER_0_33_192
*1522 FILLER_0_33_21
*1523 FILLER_0_33_211
*1524 FILLER_0_33_223
*1525 FILLER_0_33_231
*1526 FILLER_0_33_239
*1527 FILLER_0_33_258
*1528 FILLER_0_33_268
*1529 FILLER_0_33_277
*1530 FILLER_0_33_29
*1531 FILLER_0_33_3
*1532 FILLER_0_33_305
*1533 FILLER_0_33_322
*1534 FILLER_0_33_333
*1535 FILLER_0_33_34
*1536 FILLER_0_33_342
*1537 FILLER_0_33_46
*1538 FILLER_0_33_54
*1539 FILLER_0_33_64
*1540 FILLER_0_33_70
*1541 FILLER_0_33_95
*1542 FILLER_0_34_105
*1543 FILLER_0_34_118
*1544 FILLER_0_34_129
*1545 FILLER_0_34_137
*1546 FILLER_0_34_14
*1547 FILLER_0_34_141
*1548 FILLER_0_34_153
*1549 FILLER_0_34_161
*1550 FILLER_0_34_168
*1551 FILLER_0_34_174
*1552 FILLER_0_34_188
*1553 FILLER_0_34_197
*1554 FILLER_0_34_204
*1555 FILLER_0_34_212
*1556 FILLER_0_34_225
*1557 FILLER_0_34_233
*1558 FILLER_0_34_253
*1559 FILLER_0_34_259
*1560 FILLER_0_34_26
*1561 FILLER_0_34_290
*1562 FILLER_0_34_3
*1563 FILLER_0_34_302
*1564 FILLER_0_34_317
*1565 FILLER_0_34_329
*1566 FILLER_0_34_37
*1567 FILLER_0_34_58
*1568 FILLER_0_34_70
*1569 FILLER_0_34_82
*1570 FILLER_0_34_91
*1571 FILLER_0_35_113
*1572 FILLER_0_35_132
*1573 FILLER_0_35_139
*1574 FILLER_0_35_148
*1575 FILLER_0_35_152