*SPEF "ieee 1481-1999"
*DESIGN "tt_um_wokwi_380477805171811329"
*DATE "11:11:11 Fri 11 11, 1111"
*VENDOR "OpenRCX"
*PROGRAM "Parallel Extraction"
*VERSION "1.0"
*DESIGN_FLOW "NAME_SCOPE LOCAL" "PIN_CAP NONE"
*DIVIDER /
*DELIMITER :
*BUS_DELIMITER []
*T_UNIT 1 NS
*C_UNIT 1 PF
*R_UNIT 1 OHM
*L_UNIT 1 HENRY

*NAME_MAP
*3 clk
*4 ena
*5 rst_n
*6 ui_in[0]
*7 ui_in[1]
*8 ui_in[2]
*9 ui_in[3]
*10 ui_in[4]
*11 ui_in[5]
*12 ui_in[6]
*13 ui_in[7]
*14 uio_in[0]
*15 uio_in[1]
*16 uio_in[2]
*17 uio_in[3]
*18 uio_in[4]
*19 uio_in[5]
*20 uio_in[6]
*21 uio_in[7]
*22 net8
*23 net9
*24 net10
*25 net11
*26 net12
*27 net13
*28 net14
*29 net15
*30 net16
*31 net17
*32 net18
*33 net19
*34 net20
*35 net21
*36 net22
*37 net23
*38 net25
*39 uo_out[1]
*40 uo_out[2]
*41 uo_out[3]
*42 uo_out[4]
*43 net26
*44 net27
*45 net24
*46 _00_
*47 _01_
*48 _02_
*49 _03_
*50 _04_
*51 _05_
*52 _06_
*53 _07_
*54 _08_
*55 _09_
*56 _10_
*57 _11_
*58 _12_
*59 _13_
*60 _14_
*61 _15_
*62 _16_
*63 _17_
*64 and11\.a
*65 and13\.a
*66 and2\.b
*67 clknet_0_clk
*68 clknet_1_0__leaf_clk
*69 clknet_1_1__leaf_clk
*70 flop1\.d
*71 flop2\.d
*72 flop3\.d
*73 flop5\.d
*74 flop5\.q
*75 flop6\.q
*76 flop7\.q
*77 net1
*78 net2
*79 net28
*80 net29
*81 net3
*82 net30
*83 net31
*84 net4
*85 net5
*86 net6
*87 net7
*88 or10\.out
*89 or11\.out
*90 or4\.out
*91 or7\.out
*92 FILLER_0_0_109
*93 FILLER_0_0_113
*94 FILLER_0_0_125
*95 FILLER_0_0_137
*96 FILLER_0_0_141
*97 FILLER_0_0_15
*98 FILLER_0_0_153
*99 FILLER_0_0_165
*100 FILLER_0_0_169
*101 FILLER_0_0_181
*102 FILLER_0_0_193
*103 FILLER_0_0_197
*104 FILLER_0_0_209
*105 FILLER_0_0_221
*106 FILLER_0_0_225
*107 FILLER_0_0_237
*108 FILLER_0_0_249
*109 FILLER_0_0_253
*110 FILLER_0_0_265
*111 FILLER_0_0_27
*112 FILLER_0_0_277
*113 FILLER_0_0_281
*114 FILLER_0_0_29
*115 FILLER_0_0_293
*116 FILLER_0_0_3
*117 FILLER_0_0_305
*118 FILLER_0_0_309
*119 FILLER_0_0_321
*120 FILLER_0_0_333
*121 FILLER_0_0_337
*122 FILLER_0_0_349
*123 FILLER_0_0_41
*124 FILLER_0_0_53
*125 FILLER_0_0_57
*126 FILLER_0_0_69
*127 FILLER_0_0_81
*128 FILLER_0_0_85
*129 FILLER_0_0_97
*130 FILLER_0_10_109
*131 FILLER_0_10_121
*132 FILLER_0_10_133
*133 FILLER_0_10_139
*134 FILLER_0_10_141
*135 FILLER_0_10_15
*136 FILLER_0_10_153
*137 FILLER_0_10_165
*138 FILLER_0_10_177
*139 FILLER_0_10_189
*140 FILLER_0_10_195
*141 FILLER_0_10_197
*142 FILLER_0_10_209
*143 FILLER_0_10_221
*144 FILLER_0_10_233
*145 FILLER_0_10_245
*146 FILLER_0_10_251
*147 FILLER_0_10_253
*148 FILLER_0_10_265
*149 FILLER_0_10_27
*150 FILLER_0_10_277
*151 FILLER_0_10_289
*152 FILLER_0_10_29
*153 FILLER_0_10_3
*154 FILLER_0_10_301
*155 FILLER_0_10_307
*156 FILLER_0_10_309
*157 FILLER_0_10_321
*158 FILLER_0_10_333
*159 FILLER_0_10_345
*160 FILLER_0_10_41
*161 FILLER_0_10_53
*162 FILLER_0_10_65
*163 FILLER_0_10_77
*164 FILLER_0_10_83
*165 FILLER_0_10_85
*166 FILLER_0_10_97
*167 FILLER_0_11_105
*168 FILLER_0_11_111
*169 FILLER_0_11_113
*170 FILLER_0_11_125
*171 FILLER_0_11_137
*172 FILLER_0_11_149
*173 FILLER_0_11_15
*174 FILLER_0_11_161
*175 FILLER_0_11_167
*176 FILLER_0_11_169
*177 FILLER_0_11_181
*178 FILLER_0_11_193
*179 FILLER_0_11_205
*180 FILLER_0_11_217
*181 FILLER_0_11_223
*182 FILLER_0_11_225
*183 FILLER_0_11_237
*184 FILLER_0_11_249
*185 FILLER_0_11_261
*186 FILLER_0_11_27
*187 FILLER_0_11_273
*188 FILLER_0_11_279
*189 FILLER_0_11_281
*190 FILLER_0_11_293
*191 FILLER_0_11_3
*192 FILLER_0_11_305
*193 FILLER_0_11_317
*194 FILLER_0_11_329
*195 FILLER_0_11_335
*196 FILLER_0_11_337
*197 FILLER_0_11_349
*198 FILLER_0_11_39
*199 FILLER_0_11_51
*200 FILLER_0_11_55
*201 FILLER_0_11_57
*202 FILLER_0_11_69
*203 FILLER_0_11_81
*204 FILLER_0_11_93
*205 FILLER_0_12_109
*206 FILLER_0_12_121
*207 FILLER_0_12_133
*208 FILLER_0_12_139
*209 FILLER_0_12_141
*210 FILLER_0_12_15
*211 FILLER_0_12_153
*212 FILLER_0_12_165
*213 FILLER_0_12_177
*214 FILLER_0_12_189
*215 FILLER_0_12_195
*216 FILLER_0_12_197
*217 FILLER_0_12_209
*218 FILLER_0_12_221
*219 FILLER_0_12_233
*220 FILLER_0_12_245
*221 FILLER_0_12_251
*222 FILLER_0_12_253
*223 FILLER_0_12_265
*224 FILLER_0_12_27
*225 FILLER_0_12_277
*226 FILLER_0_12_289
*227 FILLER_0_12_29
*228 FILLER_0_12_3
*229 FILLER_0_12_301
*230 FILLER_0_12_307
*231 FILLER_0_12_309
*232 FILLER_0_12_321
*233 FILLER_0_12_333
*234 FILLER_0_12_345
*235 FILLER_0_12_41
*236 FILLER_0_12_53
*237 FILLER_0_12_65
*238 FILLER_0_12_77
*239 FILLER_0_12_83
*240 FILLER_0_12_85
*241 FILLER_0_12_97
*242 FILLER_0_13_105
*243 FILLER_0_13_111
*244 FILLER_0_13_113
*245 FILLER_0_13_125
*246 FILLER_0_13_137
*247 FILLER_0_13_149
*248 FILLER_0_13_15
*249 FILLER_0_13_161
*250 FILLER_0_13_167
*251 FILLER_0_13_169
*252 FILLER_0_13_181
*253 FILLER_0_13_193
*254 FILLER_0_13_205
*255 FILLER_0_13_217
*256 FILLER_0_13_223
*257 FILLER_0_13_225
*258 FILLER_0_13_237
*259 FILLER_0_13_249
*260 FILLER_0_13_261
*261 FILLER_0_13_27
*262 FILLER_0_13_273
*263 FILLER_0_13_279
*264 FILLER_0_13_281
*265 FILLER_0_13_293
*266 FILLER_0_13_3
*267 FILLER_0_13_305
*268 FILLER_0_13_317
*269 FILLER_0_13_329
*270 FILLER_0_13_335
*271 FILLER_0_13_337
*272 FILLER_0_13_349
*273 FILLER_0_13_39
*274 FILLER_0_13_51
*275 FILLER_0_13_55
*276 FILLER_0_13_57
*277 FILLER_0_13_69
*278 FILLER_0_13_81
*279 FILLER_0_13_93
*280 FILLER_0_14_109
*281 FILLER_0_14_121
*282 FILLER_0_14_133
*283 FILLER_0_14_139
*284 FILLER_0_14_141
*285 FILLER_0_14_15
*286 FILLER_0_14_153
*287 FILLER_0_14_165
*288 FILLER_0_14_177
*289 FILLER_0_14_189
*290 FILLER_0_14_195
*291 FILLER_0_14_197
*292 FILLER_0_14_209
*293 FILLER_0_14_221
*294 FILLER_0_14_233
*295 FILLER_0_14_245
*296 FILLER_0_14_251
*297 FILLER_0_14_253
*298 FILLER_0_14_265
*299 FILLER_0_14_27
*300 FILLER_0_14_277
*301 FILLER_0_14_289
*302 FILLER_0_14_29
*303 FILLER_0_14_3
*304 FILLER_0_14_301
*305 FILLER_0_14_307
*306 FILLER_0_14_309
*307 FILLER_0_14_321
*308 FILLER_0_14_333
*309 FILLER_0_14_345
*310 FILLER_0_14_41
*311 FILLER_0_14_53
*312 FILLER_0_14_65
*313 FILLER_0_14_77
*314 FILLER_0_14_83
*315 FILLER_0_14_85
*316 FILLER_0_14_97
*317 FILLER_0_15_105
*318 FILLER_0_15_111
*319 FILLER_0_15_113
*320 FILLER_0_15_125
*321 FILLER_0_15_137
*322 FILLER_0_15_149
*323 FILLER_0_15_15
*324 FILLER_0_15_161
*325 FILLER_0_15_167
*326 FILLER_0_15_169
*327 FILLER_0_15_181
*328 FILLER_0_15_193
*329 FILLER_0_15_205
*330 FILLER_0_15_217
*331 FILLER_0_15_223
*332 FILLER_0_15_225
*333 FILLER_0_15_237
*334 FILLER_0_15_249
*335 FILLER_0_15_261
*336 FILLER_0_15_27
*337 FILLER_0_15_273
*338 FILLER_0_15_279
*339 FILLER_0_15_281
*340 FILLER_0_15_293
*341 FILLER_0_15_3
*342 FILLER_0_15_305
*343 FILLER_0_15_317
*344 FILLER_0_15_329
*345 FILLER_0_15_335
*346 FILLER_0_15_337
*347 FILLER_0_15_349
*348 FILLER_0_15_39
*349 FILLER_0_15_51
*350 FILLER_0_15_55
*351 FILLER_0_15_57
*352 FILLER_0_15_69
*353 FILLER_0_15_81
*354 FILLER_0_15_93
*355 FILLER_0_16_109
*356 FILLER_0_16_121
*357 FILLER_0_16_133
*358 FILLER_0_16_139
*359 FILLER_0_16_141
*360 FILLER_0_16_15
*361 FILLER_0_16_153
*362 FILLER_0_16_165
*363 FILLER_0_16_177
*364 FILLER_0_16_189
*365 FILLER_0_16_195
*366 FILLER_0_16_197
*367 FILLER_0_16_209
*368 FILLER_0_16_221
*369 FILLER_0_16_233
*370 FILLER_0_16_245
*371 FILLER_0_16_251
*372 FILLER_0_16_253
*373 FILLER_0_16_265
*374 FILLER_0_16_27
*375 FILLER_0_16_277
*376 FILLER_0_16_289
*377 FILLER_0_16_29
*378 FILLER_0_16_3
*379 FILLER_0_16_301
*380 FILLER_0_16_307
*381 FILLER_0_16_309
*382 FILLER_0_16_321
*383 FILLER_0_16_333
*384 FILLER_0_16_345
*385 FILLER_0_16_41
*386 FILLER_0_16_53
*387 FILLER_0_16_65
*388 FILLER_0_16_77
*389 FILLER_0_16_83
*390 FILLER_0_16_85
*391 FILLER_0_16_97
*392 FILLER_0_17_105
*393 FILLER_0_17_111
*394 FILLER_0_17_113
*395 FILLER_0_17_125
*396 FILLER_0_17_137
*397 FILLER_0_17_149
*398 FILLER_0_17_15
*399 FILLER_0_17_161
*400 FILLER_0_17_167
*401 FILLER_0_17_169
*402 FILLER_0_17_181
*403 FILLER_0_17_193
*404 FILLER_0_17_205
*405 FILLER_0_17_217
*406 FILLER_0_17_223
*407 FILLER_0_17_225
*408 FILLER_0_17_237
*409 FILLER_0_17_249
*410 FILLER_0_17_261
*411 FILLER_0_17_27
*412 FILLER_0_17_273
*413 FILLER_0_17_279
*414 FILLER_0_17_281
*415 FILLER_0_17_293
*416 FILLER_0_17_3
*417 FILLER_0_17_305
*418 FILLER_0_17_317
*419 FILLER_0_17_329
*420 FILLER_0_17_335
*421 FILLER_0_17_337
*422 FILLER_0_17_349
*423 FILLER_0_17_39
*424 FILLER_0_17_51
*425 FILLER_0_17_55
*426 FILLER_0_17_57
*427 FILLER_0_17_69
*428 FILLER_0_17_81
*429 FILLER_0_17_93
*430 FILLER_0_18_109
*431 FILLER_0_18_121
*432 FILLER_0_18_133
*433 FILLER_0_18_139
*434 FILLER_0_18_141
*435 FILLER_0_18_15
*436 FILLER_0_18_153
*437 FILLER_0_18_165
*438 FILLER_0_18_177
*439 FILLER_0_18_189
*440 FILLER_0_18_195
*441 FILLER_0_18_197
*442 FILLER_0_18_209
*443 FILLER_0_18_221
*444 FILLER_0_18_233
*445 FILLER_0_18_245
*446 FILLER_0_18_251
*447 FILLER_0_18_253
*448 FILLER_0_18_265
*449 FILLER_0_18_27
*450 FILLER_0_18_277
*451 FILLER_0_18_289
*452 FILLER_0_18_29
*453 FILLER_0_18_3
*454 FILLER_0_18_301
*455 FILLER_0_18_307
*456 FILLER_0_18_309
*457 FILLER_0_18_321
*458 FILLER_0_18_333
*459 FILLER_0_18_345
*460 FILLER_0_18_41
*461 FILLER_0_18_53
*462 FILLER_0_18_65
*463 FILLER_0_18_77
*464 FILLER_0_18_83
*465 FILLER_0_18_85
*466 FILLER_0_18_97
*467 FILLER_0_19_105
*468 FILLER_0_19_111
*469 FILLER_0_19_113
*470 FILLER_0_19_125
*471 FILLER_0_19_137
*472 FILLER_0_19_149
*473 FILLER_0_19_15
*474 FILLER_0_19_161
*475 FILLER_0_19_167
*476 FILLER_0_19_169
*477 FILLER_0_19_181
*478 FILLER_0_19_193
*479 FILLER_0_19_205
*480 FILLER_0_19_217
*481 FILLER_0_19_223
*482 FILLER_0_19_225
*483 FILLER_0_19_237
*484 FILLER_0_19_249
*485 FILLER_0_19_261
*486 FILLER_0_19_27
*487 FILLER_0_19_273
*488 FILLER_0_19_279
*489 FILLER_0_19_281
*490 FILLER_0_19_293
*491 FILLER_0_19_3
*492 FILLER_0_19_305
*493 FILLER_0_19_317
*494 FILLER_0_19_329
*495 FILLER_0_19_335
*496 FILLER_0_19_337
*497 FILLER_0_19_349
*498 FILLER_0_19_39
*499 FILLER_0_19_51
*500 FILLER_0_19_55
*501 FILLER_0_19_57
*502 FILLER_0_19_69
*503 FILLER_0_19_81
*504 FILLER_0_19_93
*505 FILLER_0_1_105
*506 FILLER_0_1_111
*507 FILLER_0_1_113
*508 FILLER_0_1_125
*509 FILLER_0_1_137
*510 FILLER_0_1_149
*511 FILLER_0_1_15
*512 FILLER_0_1_161
*513 FILLER_0_1_167
*514 FILLER_0_1_169
*515 FILLER_0_1_181
*516 FILLER_0_1_193
*517 FILLER_0_1_205
*518 FILLER_0_1_217
*519 FILLER_0_1_223
*520 FILLER_0_1_225
*521 FILLER_0_1_237
*522 FILLER_0_1_249
*523 FILLER_0_1_261
*524 FILLER_0_1_27
*525 FILLER_0_1_273
*526 FILLER_0_1_279
*527 FILLER_0_1_281
*528 FILLER_0_1_293
*529 FILLER_0_1_3
*530 FILLER_0_1_305
*531 FILLER_0_1_317
*532 FILLER_0_1_329
*533 FILLER_0_1_335
*534 FILLER_0_1_337
*535 FILLER_0_1_349
*536 FILLER_0_1_39
*537 FILLER_0_1_51
*538 FILLER_0_1_55
*539 FILLER_0_1_57
*540 FILLER_0_1_69
*541 FILLER_0_1_81
*542 FILLER_0_1_93
*543 FILLER_0_20_109
*544 FILLER_0_20_121
*545 FILLER_0_20_133
*546 FILLER_0_20_139
*547 FILLER_0_20_141
*548 FILLER_0_20_15
*549 FILLER_0_20_153
*550 FILLER_0_20_165
*551 FILLER_0_20_177
*552 FILLER_0_20_189
*553 FILLER_0_20_195
*554 FILLER_0_20_197
*555 FILLER_0_20_209
*556 FILLER_0_20_221
*557 FILLER_0_20_233
*558 FILLER_0_20_245
*559 FILLER_0_20_251
*560 FILLER_0_20_253
*561 FILLER_0_20_265
*562 FILLER_0_20_27
*563 FILLER_0_20_277
*564 FILLER_0_20_289
*565 FILLER_0_20_29
*566 FILLER_0_20_3
*567 FILLER_0_20_301
*568 FILLER_0_20_307
*569 FILLER_0_20_309
*570 FILLER_0_20_321
*571 FILLER_0_20_333
*572 FILLER_0_20_345
*573 FILLER_0_20_41
*574 FILLER_0_20_53
*575 FILLER_0_20_65
*576 FILLER_0_20_77
*577 FILLER_0_20_83
*578 FILLER_0_20_85
*579 FILLER_0_20_97
*580 FILLER_0_21_105
*581 FILLER_0_21_111
*582 FILLER_0_21_113
*583 FILLER_0_21_125
*584 FILLER_0_21_137
*585 FILLER_0_21_149
*586 FILLER_0_21_15
*587 FILLER_0_21_161
*588 FILLER_0_21_167
*589 FILLER_0_21_169
*590 FILLER_0_21_181
*591 FILLER_0_21_193
*592 FILLER_0_21_205
*593 FILLER_0_21_217
*594 FILLER_0_21_223
*595 FILLER_0_21_225
*596 FILLER_0_21_237
*597 FILLER_0_21_249
*598 FILLER_0_21_261
*599 FILLER_0_21_27
*600 FILLER_0_21_273
*601 FILLER_0_21_279
*602 FILLER_0_21_281
*603 FILLER_0_21_293
*604 FILLER_0_21_3
*605 FILLER_0_21_305
*606 FILLER_0_21_317
*607 FILLER_0_21_329
*608 FILLER_0_21_335
*609 FILLER_0_21_337
*610 FILLER_0_21_349
*611 FILLER_0_21_39
*612 FILLER_0_21_51
*613 FILLER_0_21_55
*614 FILLER_0_21_57
*615 FILLER_0_21_69
*616 FILLER_0_21_81
*617 FILLER_0_21_93
*618 FILLER_0_22_109
*619 FILLER_0_22_121
*620 FILLER_0_22_133
*621 FILLER_0_22_139
*622 FILLER_0_22_141
*623 FILLER_0_22_15
*624 FILLER_0_22_153
*625 FILLER_0_22_165
*626 FILLER_0_22_177
*627 FILLER_0_22_189
*628 FILLER_0_22_195
*629 FILLER_0_22_197
*630 FILLER_0_22_209
*631 FILLER_0_22_221
*632 FILLER_0_22_233
*633 FILLER_0_22_245
*634 FILLER_0_22_251
*635 FILLER_0_22_253
*636 FILLER_0_22_265
*637 FILLER_0_22_27
*638 FILLER_0_22_277
*639 FILLER_0_22_289
*640 FILLER_0_22_29
*641 FILLER_0_22_3
*642 FILLER_0_22_301
*643 FILLER_0_22_307
*644 FILLER_0_22_309
*645 FILLER_0_22_321
*646 FILLER_0_22_333
*647 FILLER_0_22_345
*648 FILLER_0_22_41
*649 FILLER_0_22_53
*650 FILLER_0_22_65
*651 FILLER_0_22_77
*652 FILLER_0_22_83
*653 FILLER_0_22_85
*654 FILLER_0_22_97
*655 FILLER_0_23_105
*656 FILLER_0_23_111
*657 FILLER_0_23_113
*658 FILLER_0_23_125
*659 FILLER_0_23_137
*660 FILLER_0_23_149
*661 FILLER_0_23_15
*662 FILLER_0_23_161
*663 FILLER_0_23_167
*664 FILLER_0_23_169
*665 FILLER_0_23_181
*666 FILLER_0_23_193
*667 FILLER_0_23_205
*668 FILLER_0_23_217
*669 FILLER_0_23_223
*670 FILLER_0_23_225
*671 FILLER_0_23_237
*672 FILLER_0_23_249
*673 FILLER_0_23_261
*674 FILLER_0_23_27
*675 FILLER_0_23_273
*676 FILLER_0_23_279
*677 FILLER_0_23_281
*678 FILLER_0_23_293
*679 FILLER_0_23_3
*680 FILLER_0_23_305
*681 FILLER_0_23_317
*682 FILLER_0_23_329
*683 FILLER_0_23_335
*684 FILLER_0_23_337
*685 FILLER_0_23_349
*686 FILLER_0_23_39
*687 FILLER_0_23_51
*688 FILLER_0_23_55
*689 FILLER_0_23_57
*690 FILLER_0_23_69
*691 FILLER_0_23_81
*692 FILLER_0_23_93
*693 FILLER_0_24_109
*694 FILLER_0_24_121
*695 FILLER_0_24_133
*696 FILLER_0_24_139
*697 FILLER_0_24_141
*698 FILLER_0_24_15
*699 FILLER_0_24_153
*700 FILLER_0_24_165
*701 FILLER_0_24_177
*702 FILLER_0_24_189
*703 FILLER_0_24_195
*704 FILLER_0_24_197
*705 FILLER_0_24_209
*706 FILLER_0_24_221
*707 FILLER_0_24_233
*708 FILLER_0_24_245
*709 FILLER_0_24_251
*710 FILLER_0_24_253
*711 FILLER_0_24_265
*712 FILLER_0_24_27
*713 FILLER_0_24_277
*714 FILLER_0_24_289
*715 FILLER_0_24_29
*716 FILLER_0_24_3
*717 FILLER_0_24_301
*718 FILLER_0_24_307
*719 FILLER_0_24_309
*720 FILLER_0_24_321
*721 FILLER_0_24_333
*722 FILLER_0_24_345
*723 FILLER_0_24_41
*724 FILLER_0_24_53
*725 FILLER_0_24_65
*726 FILLER_0_24_77
*727 FILLER_0_24_83
*728 FILLER_0_24_85
*729 FILLER_0_24_97
*730 FILLER_0_25_105
*731 FILLER_0_25_111
*732 FILLER_0_25_113
*733 FILLER_0_25_125
*734 FILLER_0_25_137
*735 FILLER_0_25_149
*736 FILLER_0_25_15
*737 FILLER_0_25_161
*738 FILLER_0_25_167
*739 FILLER_0_25_169
*740 FILLER_0_25_181
*741 FILLER_0_25_193
*742 FILLER_0_25_205
*743 FILLER_0_25_217
*744 FILLER_0_25_223
*745 FILLER_0_25_225
*746 FILLER_0_25_237
*747 FILLER_0_25_249
*748 FILLER_0_25_261
*749 FILLER_0_25_27
*750 FILLER_0_25_273
*751 FILLER_0_25_279
*752 FILLER_0_25_281
*753 FILLER_0_25_293
*754 FILLER_0_25_3
*755 FILLER_0_25_305
*756 FILLER_0_25_317
*757 FILLER_0_25_329
*758 FILLER_0_25_335
*759 FILLER_0_25_337
*760 FILLER_0_25_349
*761 FILLER_0_25_39
*762 FILLER_0_25_51
*763 FILLER_0_25_55
*764 FILLER_0_25_57
*765 FILLER_0_25_69
*766 FILLER_0_25_81
*767 FILLER_0_25_93
*768 FILLER_0_26_109
*769 FILLER_0_26_121
*770 FILLER_0_26_133
*771 FILLER_0_26_139
*772 FILLER_0_26_141
*773 FILLER_0_26_15
*774 FILLER_0_26_153
*775 FILLER_0_26_165
*776 FILLER_0_26_177
*777 FILLER_0_26_189
*778 FILLER_0_26_195
*779 FILLER_0_26_197
*780 FILLER_0_26_209
*781 FILLER_0_26_221
*782 FILLER_0_26_233
*783 FILLER_0_26_245
*784 FILLER_0_26_251
*785 FILLER_0_26_253
*786 FILLER_0_26_265
*787 FILLER_0_26_27
*788 FILLER_0_26_277
*789 FILLER_0_26_289
*790 FILLER_0_26_29
*791 FILLER_0_26_3
*792 FILLER_0_26_301
*793 FILLER_0_26_307
*794 FILLER_0_26_309
*795 FILLER_0_26_321
*796 FILLER_0_26_333
*797 FILLER_0_26_345
*798 FILLER_0_26_41
*799 FILLER_0_26_53
*800 FILLER_0_26_65
*801 FILLER_0_26_77
*802 FILLER_0_26_83
*803 FILLER_0_26_85
*804 FILLER_0_26_97
*805 FILLER_0_27_105
*806 FILLER_0_27_111
*807 FILLER_0_27_113
*808 FILLER_0_27_125
*809 FILLER_0_27_137
*810 FILLER_0_27_149
*811 FILLER_0_27_15
*812 FILLER_0_27_161
*813 FILLER_0_27_167
*814 FILLER_0_27_169
*815 FILLER_0_27_181
*816 FILLER_0_27_193
*817 FILLER_0_27_205
*818 FILLER_0_27_217
*819 FILLER_0_27_223
*820 FILLER_0_27_225
*821 FILLER_0_27_237
*822 FILLER_0_27_249
*823 FILLER_0_27_261
*824 FILLER_0_27_27
*825 FILLER_0_27_273
*826 FILLER_0_27_279
*827 FILLER_0_27_281
*828 FILLER_0_27_293
*829 FILLER_0_27_3
*830 FILLER_0_27_305
*831 FILLER_0_27_317
*832 FILLER_0_27_329
*833 FILLER_0_27_335
*834 FILLER_0_27_337
*835 FILLER_0_27_349
*836 FILLER_0_27_39
*837 FILLER_0_27_51
*838 FILLER_0_27_55
*839 FILLER_0_27_57
*840 FILLER_0_27_69
*841 FILLER_0_27_81
*842 FILLER_0_27_93
*843 FILLER_0_28_109
*844 FILLER_0_28_121
*845 FILLER_0_28_133
*846 FILLER_0_28_139
*847 FILLER_0_28_141
*848 FILLER_0_28_15
*849 FILLER_0_28_153
*850 FILLER_0_28_165
*851 FILLER_0_28_177
*852 FILLER_0_28_189
*853 FILLER_0_28_195
*854 FILLER_0_28_197
*855 FILLER_0_28_209
*856 FILLER_0_28_221
*857 FILLER_0_28_233
*858 FILLER_0_28_245
*859 FILLER_0_28_251
*860 FILLER_0_28_253
*861 FILLER_0_28_265
*862 FILLER_0_28_27
*863 FILLER_0_28_277
*864 FILLER_0_28_289
*865 FILLER_0_28_29
*866 FILLER_0_28_3
*867 FILLER_0_28_301
*868 FILLER_0_28_307
*869 FILLER_0_28_309
*870 FILLER_0_28_321
*871 FILLER_0_28_333
*872 FILLER_0_28_345
*873 FILLER_0_28_41
*874 FILLER_0_28_53
*875 FILLER_0_28_65
*876 FILLER_0_28_77
*877 FILLER_0_28_83
*878 FILLER_0_28_85
*879 FILLER_0_28_97
*880 FILLER_0_29_105
*881 FILLER_0_29_111
*882 FILLER_0_29_113
*883 FILLER_0_29_125
*884 FILLER_0_29_137
*885 FILLER_0_29_149
*886 FILLER_0_29_15
*887 FILLER_0_29_161
*888 FILLER_0_29_167
*889 FILLER_0_29_169
*890 FILLER_0_29_181
*891 FILLER_0_29_193
*892 FILLER_0_29_221
*893 FILLER_0_29_225
*894 FILLER_0_29_237
*895 FILLER_0_29_249
*896 FILLER_0_29_261
*897 FILLER_0_29_27
*898 FILLER_0_29_273
*899 FILLER_0_29_279
*900 FILLER_0_29_281
*901 FILLER_0_29_293
*902 FILLER_0_29_3
*903 FILLER_0_29_305
*904 FILLER_0_29_317
*905 FILLER_0_29_329
*906 FILLER_0_29_335
*907 FILLER_0_29_337
*908 FILLER_0_29_349
*909 FILLER_0_29_39
*910 FILLER_0_29_51
*911 FILLER_0_29_55
*912 FILLER_0_29_57
*913 FILLER_0_29_69
*914 FILLER_0_29_81
*915 FILLER_0_29_93
*916 FILLER_0_2_109
*917 FILLER_0_2_121
*918 FILLER_0_2_133
*919 FILLER_0_2_139
*920 FILLER_0_2_141
*921 FILLER_0_2_15
*922 FILLER_0_2_153
*923 FILLER_0_2_165
*924 FILLER_0_2_177
*925 FILLER_0_2_189
*926 FILLER_0_2_195
*927 FILLER_0_2_197
*928 FILLER_0_2_209
*929 FILLER_0_2_221
*930 FILLER_0_2_233
*931 FILLER_0_2_245
*932 FILLER_0_2_251
*933 FILLER_0_2_253
*934 FILLER_0_2_265
*935 FILLER_0_2_27
*936 FILLER_0_2_277
*937 FILLER_0_2_289
*938 FILLER_0_2_29
*939 FILLER_0_2_3
*940 FILLER_0_2_301
*941 FILLER_0_2_307
*942 FILLER_0_2_309
*943 FILLER_0_2_321
*944 FILLER_0_2_333
*945 FILLER_0_2_345
*946 FILLER_0_2_41
*947 FILLER_0_2_53
*948 FILLER_0_2_65
*949 FILLER_0_2_77
*950 FILLER_0_2_83
*951 FILLER_0_2_85
*952 FILLER_0_2_97
*953 FILLER_0_30_109
*954 FILLER_0_30_121
*955 FILLER_0_30_133
*956 FILLER_0_30_139
*957 FILLER_0_30_141
*958 FILLER_0_30_15
*959 FILLER_0_30_153
*960 FILLER_0_30_165
*961 FILLER_0_30_177
*962 FILLER_0_30_189
*963 FILLER_0_30_195
*964 FILLER_0_30_197
*965 FILLER_0_30_209
*966 FILLER_0_30_221
*967 FILLER_0_30_233
*968 FILLER_0_30_245
*969 FILLER_0_30_251
*970 FILLER_0_30_253
*971 FILLER_0_30_265
*972 FILLER_0_30_27
*973 FILLER_0_30_277
*974 FILLER_0_30_289
*975 FILLER_0_30_29
*976 FILLER_0_30_3
*977 FILLER_0_30_301
*978 FILLER_0_30_307
*979 FILLER_0_30_309
*980 FILLER_0_30_321
*981 FILLER_0_30_333
*982 FILLER_0_30_345
*983 FILLER_0_30_41
*984 FILLER_0_30_53
*985 FILLER_0_30_65
*986 FILLER_0_30_77
*987 FILLER_0_30_83
*988 FILLER_0_30_85
*989 FILLER_0_30_97
*990 FILLER_0_31_105
*991 FILLER_0_31_111
*992 FILLER_0_31_113
*993 FILLER_0_31_125
*994 FILLER_0_31_137
*995 FILLER_0_31_149
*996 FILLER_0_31_15
*997 FILLER_0_31_161
*998 FILLER_0_31_167
*999 FILLER_0_31_169
*1000 FILLER_0_31_181
*1001 FILLER_0_31_193
*1002 FILLER_0_31_205
*1003 FILLER_0_31_217
*1004 FILLER_0_31_223
*1005 FILLER_0_31_225
*1006 FILLER_0_31_237
*1007 FILLER_0_31_249
*1008 FILLER_0_31_261
*1009 FILLER_0_31_27
*1010 FILLER_0_31_273
*1011 FILLER_0_31_279
*1012 FILLER_0_31_281
*1013 FILLER_0_31_293
*1014 FILLER_0_31_3
*1015 FILLER_0_31_305
*1016 FILLER_0_31_317
*1017 FILLER_0_31_329
*1018 FILLER_0_31_335
*1019 FILLER_0_31_337
*1020 FILLER_0_31_349
*1021 FILLER_0_31_39
*1022 FILLER_0_31_51
*1023 FILLER_0_31_55
*1024 FILLER_0_31_57
*1025 FILLER_0_31_69
*1026 FILLER_0_31_81
*1027 FILLER_0_31_93
*1028 FILLER_0_32_109
*1029 FILLER_0_32_121
*1030 FILLER_0_32_133
*1031 FILLER_0_32_139
*1032 FILLER_0_32_141
*1033 FILLER_0_32_15
*1034 FILLER_0_32_153
*1035 FILLER_0_32_165
*1036 FILLER_0_32_177
*1037 FILLER_0_32_189
*1038 FILLER_0_32_195
*1039 FILLER_0_32_197
*1040 FILLER_0_32_209
*1041 FILLER_0_32_221
*1042 FILLER_0_32_233
*1043 FILLER_0_32_245
*1044 FILLER_0_32_251
*1045 FILLER_0_32_253
*1046 FILLER_0_32_265
*1047 FILLER_0_32_27
*1048 FILLER_0_32_277
*1049 FILLER_0_32_289
*1050 FILLER_0_32_29
*1051 FILLER_0_32_3
*1052 FILLER_0_32_301
*1053 FILLER_0_32_307
*1054 FILLER_0_32_309
*1055 FILLER_0_32_321
*1056 FILLER_0_32_333
*1057 FILLER_0_32_345
*1058 FILLER_0_32_41
*1059 FILLER_0_32_53
*1060 FILLER_0_32_65
*1061 FILLER_0_32_77
*1062 FILLER_0_32_83
*1063 FILLER_0_32_85
*1064 FILLER_0_32_97
*1065 FILLER_0_33_105
*1066 FILLER_0_33_111
*1067 FILLER_0_33_113
*1068 FILLER_0_33_125
*1069 FILLER_0_33_137
*1070 FILLER_0_33_149
*1071 FILLER_0_33_15
*1072 FILLER_0_33_161
*1073 FILLER_0_33_167
*1074 FILLER_0_33_169
*1075 FILLER_0_33_181
*1076 FILLER_0_33_193
*1077 FILLER_0_33_205
*1078 FILLER_0_33_217
*1079 FILLER_0_33_223
*1080 FILLER_0_33_225
*1081 FILLER_0_33_237
*1082 FILLER_0_33_259
*1083 FILLER_0_33_27
*1084 FILLER_0_33_271
*1085 FILLER_0_33_279
*1086 FILLER_0_33_281
*1087 FILLER_0_33_293
*1088 FILLER_0_33_3
*1089 FILLER_0_33_305
*1090 FILLER_0_33_317
*1091 FILLER_0_33_329
*1092 FILLER_0_33_335
*1093 FILLER_0_33_337
*1094 FILLER_0_33_349
*1095 FILLER_0_33_39
*1096 FILLER_0_33_51
*1097 FILLER_0_33_55
*1098 FILLER_0_33_57
*1099 FILLER_0_33_69
*1100 FILLER_0_33_81
*1101 FILLER_0_33_93
*1102 FILLER_0_34_109
*1103 FILLER_0_34_121
*1104 FILLER_0_34_133
*1105 FILLER_0_34_139
*1106 FILLER_0_34_141
*1107 FILLER_0_34_15
*1108 FILLER_0_34_153
*1109 FILLER_0_34_165
*1110 FILLER_0_34_177
*1111 FILLER_0_34_189
*1112 FILLER_0_34_195
*1113 FILLER_0_34_197
*1114 FILLER_0_34_217
*1115 FILLER_0_34_225
*1116 FILLER_0_34_245
*1117 FILLER_0_34_251
*1118 FILLER_0_34_261
*1119 FILLER_0_34_27
*1120 FILLER_0_34_273
*1121 FILLER_0_34_285
*1122 FILLER_0_34_29
*1123 FILLER_0_34_297
*1124 FILLER_0_34_3
*1125 FILLER_0_34_305
*1126 FILLER_0_34_309
*1127 FILLER_0_34_321
*1128 FILLER_0_34_333
*1129 FILLER_0_34_345
*1130 FILLER_0_34_41
*1131 FILLER_0_34_53
*1132 FILLER_0_34_65
*1133 FILLER_0_34_77
*1134 FILLER_0_34_83
*1135 FILLER_0_34_85
*1136 FILLER_0_34_97
*1137 FILLER_0_35_105
*1138 FILLER_0_35_111
*1139 FILLER_0_35_113
*1140 FILLER_0_35_125
*1141 FILLER_0_35_137
*1142 FILLER_0_35_149
*1143 FILLER_0_35_15
*1144 FILLER_0_35_161
*1145 FILLER_0_35_167
*1146 FILLER_0_35_169
*1147 FILLER_0_35_181
*1148 FILLER_0_35_193
*1149 FILLER_0_35_201
*1150 FILLER_0_35_217
*1151 FILLER_0_35_223
*1152 FILLER_0_35_244
*1153 FILLER_0_35_248
*1154 FILLER_0_35_252
*1155 FILLER_0_35_258
*1156 FILLER_0_35_27
*1157 FILLER_0_35_270
*1158 FILLER_0_35_278
*1159 FILLER_0_35_281
*1160 FILLER_0_35_293
*1161 FILLER_0_35_3
*1162 FILLER_0_35_305
*1163 FILLER_0_35_317
*1164 FILLER_0_35_329
*1165 FILLER_0_35_335
*1166 FILLER_0_35_337
*1167 FILLER_0_35_349
*1168 FILLER_0_35_39
*1169 FILLER_0_35_51
*1170 FILLER_0_35_55
*1171 FILLER_0_35_57
*1172 FILLER_0_35_69
*1173 FILLER_0_35_81
*1174 FILLER_0_35_93
*1175 FILLER_0_36_109
*1176 FILLER_0_36_121
*1177 FILLER_0_36_133
*1178 FILLER_0_36_139
*1179 FILLER_0_36_141
*1180 FILLER_0_36_15
*1181 FILLER_0_36_153
*1182 FILLER_0_36_165
*1183 FILLER_0_36_177
*1184 FILLER_0_36_189
*1185 FILLER_0_36_194
*1186 FILLER_0_36_197
*1187 FILLER_0_36_201
*1188 FILLER_0_36_218
*1189 FILLER_0_36_250
*1190 FILLER_0_36_268
*1191 FILLER_0_36_27
*1192 FILLER_0_36_285
*1193 FILLER_0_36_29
*1194 FILLER_0_36_294
*1195 FILLER_0_36_3
*1196 FILLER_0_36_306
*1197 FILLER_0_36_309
*1198 FILLER_0_36_321
*1199 FILLER_0_36_333
*1200 FILLER_0_36_345
*1201 FILLER_0_36_41
*1202 FILLER_0_36_53
*1203 FILLER_0_36_65
*1204 FILLER_0_36_77
*1205 FILLER_0_36_83
*1206 FILLER_0_36_85
*1207 FILLER_0_36_97
*1208 FILLER_0_37_105
*1209 FILLER_0_37_111
*1210 FILLER_0_37_113
*1211 FILLER_0_37_125
*1212 FILLER_0_37_137
*1213 FILLER_0_37_149
*1214 FILLER_0_37_15
*1215 FILLER_0_37_161
*1216 FILLER_0_37_167
*1217 FILLER_0_37_169
*1218 FILLER_0_37_181
*1219 FILLER_0_37_202
*1220 FILLER_0_37_206
*1221 FILLER_0_37_223
*1222 FILLER_0_37_225
*1223 FILLER_0_37_231
*1224 FILLER_0_37_238
*1225 FILLER_0_37_250
*1226 FILLER_0_37_256
*1227 FILLER_0_37_260
*1228 FILLER_0_37_27
*1229 FILLER_0_37_272
*1230 FILLER_0_37_278
*1231 FILLER_0_37_290
*1232 FILLER_0_37_3
*1233 FILLER_0_37_302
*1234 FILLER_0_37_314
*1235 FILLER_0_37_326
*1236 FILLER_0_37_334
*1237 FILLER_0_37_337
*1238 FILLER_0_37_349
*1239 FILLER_0_37_39
*1240 FILLER_0_37_51
*1241 FILLER_0_37_55
*1242 FILLER_0_37_57
*1243 FILLER_0_37_69
*1244 FILLER_0_37_81
*1245 FILLER_0_37_93
*1246 FILLER_0_38_104
*1247 FILLER_0_38_110
*1248 FILLER_0_38_116
*1249 FILLER_0_38_122
*1250 FILLER_0_38_128
*1251 FILLER_0_38_134
*1252 FILLER_0_38_141
*1253 FILLER_0_38_146
*1254 FILLER_0_38_15
*1255 FILLER_0_38_152
*1256 FILLER_0_38_158
*1257 FILLER_0_38_164
*1258 FILLER_0_38_172
*1259 FILLER_0_38_180
*1260 FILLER_0_38_184
*1261 FILLER_0_38_189
*1262 FILLER_0_38_195
*1263 FILLER_0_38_241
*1264 FILLER_0_38_253
*1265 FILLER_0_38_27
*1266 FILLER_0_38_279
*1267 FILLER_0_38_29
*1268 FILLER_0_38_3
*1269 FILLER_0_38_307
*1270 FILLER_0_38_309
*1271 FILLER_0_38_321
*1272 FILLER_0_38_333
*1273 FILLER_0_38_337
*1274 FILLER_0_38_349
*1275 FILLER_0_38_41
*1276 FILLER_0_38_53
*1277 FILLER_0_38_57
*1278 FILLER_0_38_68
*1279 FILLER_0_38_74
*1280 FILLER_0_38_80
*1281 FILLER_0_38_88
*1282 FILLER_0_38_92
*1283 FILLER_0_38_98
*1284 FILLER_0_3_105
*1285 FILLER_0_3_111
*1286 FILLER_0_3_113
*1287 FILLER_0_3_125
*1288 FILLER_0_3_137
*1289 FILLER_0_3_149
*1290 FILLER_0_3_15
*1291 FILLER_0_3_161
*1292 FILLER_0_3_167
*1293 FILLER_0_3_169
*1294 FILLER_0_3_181
*1295 FILLER_0_3_193
*1296 FILLER_0_3_205
*1297 FILLER_0_3_217
*1298 FILLER_0_3_223
*1299 FILLER_0_3_225
*1300 FILLER_0_3_237
*1301 FILLER_0_3_249
*1302 FILLER_0_3_261
*1303 FILLER_0_3_27
*1304 FILLER_0_3_273
*1305 FILLER_0_3_279
*1306 FILLER_0_3_281
*1307 FILLER_0_3_293
*1308 FILLER_0_3_3
*1309 FILLER_0_3_305
*1310 FILLER_0_3_317
*1311 FILLER_0_3_329
*1312 FILLER_0_3_335
*1313 FILLER_0_3_337
*1314 FILLER_0_3_349
*1315 FILLER_0_3_39
*1316 FILLER_0_3_51
*1317 FILLER_0_3_55
*1318 FILLER_0_3_57
*1319 FILLER_0_3_69
*1320 FILLER_0_3_81
*1321 FILLER_0_3_93
*1322 FILLER_0_4_109
*1323 FILLER_0_4_121
*1324 FILLER_0_4_133
*1325 FILLER_0_4_139
*1326 FILLER_0_4_141
*1327 FILLER_0_4_15
*1328 FILLER_0_4_153
*1329 FILLER_0_4_165
*1330 FILLER_0_4_177
*1331 FILLER_0_4_189
*1332 FILLER_0_4_195
*1333 FILLER_0_4_197
*1334 FILLER_0_4_209
*1335 FILLER_0_4_221
*1336 FILLER_0_4_233
*1337 FILLER_0_4_245
*1338 FILLER_0_4_251
*1339 FILLER_0_4_253
*1340 FILLER_0_4_265
*1341 FILLER_0_4_27
*1342 FILLER_0_4_277
*1343 FILLER_0_4_289
*1344 FILLER_0_4_29
*1345 FILLER_0_4_3
*1346 FILLER_0_4_301
*1347 FILLER_0_4_307
*1348 FILLER_0_4_309
*1349 FILLER_0_4_321
*1350 FILLER_0_4_333
*1351 FILLER_0_4_345
*1352 FILLER_0_4_41
*1353 FILLER_0_4_53
*1354 FILLER_0_4_65
*1355 FILLER_0_4_77
*1356 FILLER_0_4_83
*1357 FILLER_0_4_85
*1358 FILLER_0_4_97
*1359 FILLER_0_5_105
*1360 FILLER_0_5_111
*1361 FILLER_0_5_113
*1362 FILLER_0_5_125
*1363 FILLER_0_5_137
*1364 FILLER_0_5_149
*1365 FILLER_0_5_15
*1366 FILLER_0_5_161
*1367 FILLER_0_5_167
*1368 FILLER_0_5_169
*1369 FILLER_0_5_181
*1370 FILLER_0_5_193
*1371 FILLER_0_5_205
*1372 FILLER_0_5_217
*1373 FILLER_0_5_223
*1374 FILLER_0_5_225
*1375 FILLER_0_5_237
*1376 FILLER_0_5_249
*1377 FILLER_0_5_261
*1378 FILLER_0_5_27
*1379 FILLER_0_5_273
*1380 FILLER_0_5_279
*1381 FILLER_0_5_281
*1382 FILLER_0_5_293
*1383 FILLER_0_5_3
*1384 FILLER_0_5_305
*1385 FILLER_0_5_317
*1386 FILLER_0_5_329
*1387 FILLER_0_5_335
*1388 FILLER_0_5_337
*1389 FILLER_0_5_349
*1390 FILLER_0_5_39
*1391 FILLER_0_5_51
*1392 FILLER_0_5_55
*1393 FILLER_0_5_57
*1394 FILLER_0_5_69
*1395 FILLER_0_5_81
*1396 FILLER_0_5_93
*1397 FILLER_0_6_109
*1398 FILLER_0_6_121
*1399 FILLER_0_6_133
*1400 FILLER_0_6_139
*1401 FILLER_0_6_141
*1402 FILLER_0_6_15
*1403 FILLER_0_6_153
*1404 FILLER_0_6_165
*1405 FILLER_0_6_177
*1406 FILLER_0_6_189
*1407 FILLER_0_6_195
*1408 FILLER_0_6_197
*1409 FILLER_0_6_209
*1410 FILLER_0_6_221
*1411 FILLER_0_6_233
*1412 FILLER_0_6_245
*1413 FILLER_0_6_251
*1414 FILLER_0_6_253
*1415 FILLER_0_6_265
*1416 FILLER_0_6_27
*1417 FILLER_0_6_277
*1418 FILLER_0_6_289
*1419 FILLER_0_6_29
*1420 FILLER_0_6_3
*1421 FILLER_0_6_301
*1422 FILLER_0_6_307
*1423 FILLER_0_6_309
*1424 FILLER_0_6_321
*1425 FILLER_0_6_333
*1426 FILLER_0_6_345
*1427 FILLER_0_6_41
*1428 FILLER_0_6_53
*1429 FILLER_0_6_65
*1430 FILLER_0_6_77
*1431 FILLER_0_6_83
*1432 FILLER_0_6_85
*1433 FILLER_0_6_97
*1434 FILLER_0_7_105
*1435 FILLER_0_7_111
*1436 FILLER_0_7_113
*1437 FILLER_0_7_125
*1438 FILLER_0_7_137
*1439 FILLER_0_7_149
*1440 FILLER_0_7_15
*1441 FILLER_0_7_161
*1442 FILLER_0_7_167
*1443 FILLER_0_7_169
*1444 FILLER_0_7_181
*1445 FILLER_0_7_193
*1446 FILLER_0_7_205
*1447 FILLER_0_7_217
*1448 FILLER_0_7_223
*1449 FILLER_0_7_225
*1450 FILLER_0_7_237
*1451 FILLER_0_7_249
*1452 FILLER_0_7_261
*1453 FILLER_0_7_27
*1454 FILLER_0_7_273
*1455 FILLER_0_7_279
*1456 FILLER_0_7_281
*1457 FILLER_0_7_293
*1458 FILLER_0_7_3
*1459 FILLER_0_7_305
*1460 FILLER_0_7_317
*1461 FILLER_0_7_329
*1462 FILLER_0_7_335
*1463 FILLER_0_7_337
*1464 FILLER_0_7_349
*1465 FILLER_0_7_39
*1466 FILLER_0_7_51
*1467 FILLER_0_7_55
*1468 FILLER_0_7_57
*1469 FILLER_0_7_69