*SPEF "ieee 1481-1999"
*DESIGN "tt_um_rejunity_ay8913"
*DATE "11:11:11 Fri 11 11, 1111"
*VENDOR "OpenRCX"
*PROGRAM "Parallel Extraction"
*VERSION "1.0"
*DESIGN_FLOW "NAME_SCOPE LOCAL" "PIN_CAP NONE"
*DIVIDER /
*DELIMITER :
*BUS_DELIMITER []
*T_UNIT 1 NS
*C_UNIT 1 PF
*R_UNIT 1 OHM
*L_UNIT 1 HENRY

*NAME_MAP
*3 clk
*4 ena
*5 rst_n
*6 ui_in[0]
*7 ui_in[1]
*8 ui_in[2]
*9 ui_in[3]
*10 ui_in[4]
*11 ui_in[5]
*12 ui_in[6]
*13 ui_in[7]
*14 uio_in[0]
*15 uio_in[1]
*16 uio_in[2]
*17 uio_in[3]
*18 uio_in[4]
*19 uio_in[5]
*20 uio_in[6]
*21 uio_in[7]
*22 net16
*23 net17
*24 net18
*25 net19
*26 net51
*27 net52
*28 net53
*29 net54
*30 net20
*31 net21
*32 net22
*33 net23
*34 uio_out[4]
*35 uio_out[5]
*36 uio_out[6]
*37 uio_out[7]
*38 uo_out[0]
*39 uo_out[1]
*40 uo_out[2]
*41 uo_out[3]
*42 uo_out[4]
*43 uo_out[5]
*44 uo_out[6]
*45 uo_out[7]
*46 _0003_
*47 _0004_
*48 _0005_
*49 _0006_
*50 _0007_
*51 _0008_
*52 _0009_
*53 _0010_
*54 _0011_
*55 _0012_
*56 _0013_
*57 _0014_
*58 _0015_
*59 _0016_
*60 _0017_
*61 _0018_
*62 _0019_
*63 _0020_
*64 _0021_
*65 _0022_
*66 _0023_
*67 _0024_
*68 _0025_
*69 _0026_
*70 _0027_
*71 _0028_
*72 _0029_
*73 _0030_
*74 _0031_
*75 _0032_
*76 _0033_
*77 _0034_
*78 _0035_
*79 _0036_
*80 _0037_
*81 _0038_
*82 _0039_
*83 _0040_
*84 _0041_
*85 _0042_
*86 _0043_
*87 _0044_
*88 _0045_
*89 _0046_
*90 _0047_
*91 _0048_
*92 _0049_
*93 _0050_
*94 _0051_
*95 _0052_
*96 _0053_
*97 _0054_
*98 _0055_
*99 _0056_
*100 _0057_
*101 _0058_
*102 _0059_
*103 _0060_
*104 _0061_
*105 _0062_
*106 _0063_
*107 _0064_
*108 _0065_
*109 _0066_
*110 _0067_
*111 _0068_
*112 _0069_
*113 _0070_
*114 _0071_
*115 _0072_
*116 _0073_
*117 _0074_
*118 _0075_
*119 _0076_
*120 _0077_
*121 _0078_
*122 _0079_
*123 _0080_
*124 _0081_
*125 _0082_
*126 _0083_
*127 _0084_
*128 _0085_
*129 _0086_
*130 _0087_
*131 _0088_
*132 _0089_
*133 _0090_
*134 _0091_
*135 _0092_
*136 _0093_
*137 _0094_
*138 _0095_
*139 _0096_
*140 _0097_
*141 _0098_
*142 _0099_
*143 _0100_
*144 _0101_
*145 _0102_
*146 _0103_
*147 _0104_
*148 _0105_
*149 _0106_
*150 _0107_
*151 _0108_
*152 _0109_
*153 _0110_
*154 _0111_
*155 _0112_
*156 _0113_
*157 _0114_
*158 _0115_
*159 _0116_
*160 _0117_
*161 _0118_
*162 _0119_
*163 _0120_
*164 _0121_
*165 _0122_
*166 _0123_
*167 _0124_
*168 _0125_
*169 _0126_
*170 _0127_
*171 _0128_
*172 _0129_
*173 _0130_
*174 _0131_
*175 _0132_
*176 _0133_
*177 _0134_
*178 _0135_
*179 _0136_
*180 _0137_
*181 _0138_
*182 _0139_
*183 _0140_
*184 _0141_
*185 _0142_
*186 _0143_
*187 _0144_
*188 _0145_
*189 _0146_
*190 _0147_
*191 _0148_
*192 _0149_
*193 _0150_
*194 _0151_
*195 _0152_
*196 _0153_
*197 _0154_
*198 _0155_
*199 _0156_
*200 _0157_
*201 _0158_
*202 _0159_
*203 _0160_
*204 _0161_
*205 _0162_
*206 _0163_
*207 _0164_
*208 _0165_
*209 _0166_
*210 _0167_
*211 _0168_
*212 _0169_
*213 _0170_
*214 _0171_
*215 _0172_
*216 _0173_
*217 _0174_
*218 _0175_
*219 _0176_
*220 _0177_
*221 _0178_
*222 _0179_
*223 _0180_
*224 _0181_
*225 _0182_
*226 _0183_
*227 _0184_
*228 _0185_
*229 _0186_
*230 _0187_
*231 _0188_
*232 _0189_
*233 _0190_
*234 _0191_
*235 _0192_
*236 _0193_
*237 _0194_
*238 _0195_
*239 _0196_
*240 _0197_
*241 _0198_
*242 _0199_
*243 _0200_
*244 _0201_
*245 _0202_
*246 _0203_
*247 _0204_
*248 _0205_
*249 _0206_
*250 _0207_
*251 _0208_
*252 _0209_
*253 _0210_
*254 _0211_
*255 _0212_
*256 _0213_
*257 _0214_
*258 _0215_
*259 _0216_
*260 _0217_
*261 _0218_
*262 _0219_
*263 _0220_
*264 _0221_
*265 _0222_
*266 _0223_
*267 _0224_
*268 _0225_
*269 _0226_
*270 _0227_
*271 _0228_
*272 _0229_
*273 _0230_
*274 _0231_
*275 _0232_
*276 _0233_
*277 _0234_
*278 _0235_
*279 _0236_
*280 _0237_
*281 _0238_
*282 _0239_
*283 _0240_
*284 _0241_
*285 _0242_
*286 _0243_
*287 _0244_
*288 _0245_
*289 _0246_
*290 _0247_
*291 _0248_
*292 _0249_
*293 _0250_
*294 _0251_
*295 _0252_
*296 _0253_
*297 _0254_
*298 _0255_
*299 _0256_
*300 _0257_
*301 _0258_
*302 _0259_
*303 _0260_
*304 _0261_
*305 _0262_
*306 _0263_
*307 _0264_
*308 _0265_
*309 _0266_
*310 _0267_
*311 _0268_
*312 _0269_
*313 _0270_
*314 _0271_
*315 _0272_
*316 _0273_
*317 _0274_
*318 _0275_
*319 _0276_
*320 _0277_
*321 _0278_
*322 _0279_
*323 _0280_
*324 _0281_
*325 _0282_
*326 _0283_
*327 _0284_
*328 _0285_
*329 _0286_
*330 _0287_
*331 _0288_
*332 _0289_
*333 _0290_
*334 _0291_
*335 _0292_
*336 _0293_
*337 _0294_
*338 _0295_
*339 _0296_
*340 _0297_
*341 _0298_
*342 _0299_
*343 _0300_
*344 _0301_
*345 _0302_
*346 _0303_
*347 _0304_
*348 _0305_
*349 _0306_
*350 _0307_
*351 _0308_
*352 _0309_
*353 _0310_
*354 _0311_
*355 _0312_
*356 _0313_
*357 _0314_
*358 _0315_
*359 _0316_
*360 _0317_
*361 _0318_
*362 _0319_
*363 _0320_
*364 _0321_
*365 _0322_
*366 _0323_
*367 _0324_
*368 _0325_
*369 _0326_
*370 _0327_
*371 _0328_
*372 _0329_
*373 _0330_
*374 _0331_
*375 _0332_
*376 _0333_
*377 _0334_
*378 _0335_
*379 _0336_
*380 _0337_
*381 _0338_
*382 _0339_
*383 _0340_
*384 _0341_
*385 _0342_
*386 _0343_
*387 _0344_
*388 _0345_
*389 _0346_
*390 _0347_
*391 _0348_
*392 _0349_
*393 _0350_
*394 _0351_
*395 _0352_
*396 _0353_
*397 _0354_
*398 _0355_
*399 _0356_
*400 _0357_
*401 _0358_
*402 _0359_
*403 _0360_
*404 _0361_
*405 _0362_
*406 _0363_
*407 _0364_
*408 _0365_
*409 _0366_
*410 _0367_
*411 _0368_
*412 _0369_
*413 _0370_
*414 _0371_
*415 _0372_
*416 _0373_
*417 _0374_
*418 _0375_
*419 _0376_
*420 _0377_
*421 _0378_
*422 _0379_
*423 _0380_
*424 _0381_
*425 _0382_
*426 _0383_
*427 _0384_
*428 _0385_
*429 _0386_
*430 _0387_
*431 _0388_
*432 _0389_
*433 _0390_
*434 _0391_
*435 _0392_
*436 _0393_
*437 _0394_
*438 _0395_
*439 _0396_
*440 _0397_
*441 _0398_
*442 _0399_
*443 _0400_
*444 _0401_
*445 _0402_
*446 _0403_
*447 _0404_
*448 _0405_
*449 _0406_
*450 _0407_
*451 _0408_
*452 _0409_
*453 _0410_
*454 _0411_
*455 _0412_
*456 _0413_
*457 _0414_
*458 _0415_
*459 _0416_
*460 _0417_
*461 _0418_
*462 _0419_
*463 _0420_
*464 _0421_
*465 _0422_
*466 _0423_
*467 _0424_
*468 _0425_
*469 _0426_
*470 _0427_
*471 _0428_
*472 _0429_
*473 _0430_
*474 _0431_
*475 _0432_
*476 _0433_
*477 _0434_
*478 _0435_
*479 _0436_
*480 _0437_
*481 _0438_
*482 _0439_
*483 _0440_
*484 _0441_
*485 _0442_
*486 _0443_
*487 _0444_
*488 _0445_
*489 _0446_
*490 _0447_
*491 _0448_
*492 _0449_
*493 _0450_
*494 _0451_
*495 _0452_
*496 _0453_
*497 _0454_
*498 _0455_
*499 _0456_
*500 _0457_
*501 _0458_
*502 _0459_
*503 _0460_
*504 _0461_
*505 _0462_
*506 _0463_
*507 _0464_
*508 _0465_
*509 _0466_
*510 _0467_
*511 _0468_
*512 _0469_
*513 _0470_
*514 _0471_
*515 _0472_
*516 _0473_
*517 _0474_
*518 _0475_
*519 _0476_
*520 _0477_
*521 _0478_
*522 _0479_
*523 _0480_
*524 _0481_
*525 _0482_
*526 _0483_
*527 _0484_
*528 _0485_
*529 _0486_
*530 _0487_
*531 _0488_
*532 _0489_
*533 _0490_
*534 _0491_
*535 _0492_
*536 _0493_
*537 _0494_
*538 _0495_
*539 _0496_
*540 _0497_
*541 _0498_
*542 _0499_
*543 _0500_
*544 _0501_
*545 _0502_
*546 _0503_
*547 _0504_
*548 _0505_
*549 _0506_
*550 _0507_
*551 _0508_
*552 _0509_
*553 _0510_
*554 _0511_
*555 _0512_
*556 _0513_
*557 _0514_
*558 _0515_
*559 _0516_
*560 _0517_
*561 _0518_
*562 _0519_
*563 _0520_
*564 _0521_
*565 _0522_
*566 _0523_
*567 _0524_
*568 _0525_
*569 _0526_
*570 _0527_
*571 _0528_
*572 _0529_
*573 _0530_
*574 _0531_
*575 _0532_
*576 _0533_
*577 _0534_
*578 _0535_
*579 _0536_
*580 _0537_
*581 _0538_
*582 _0539_
*583 _0540_
*584 _0541_
*585 _0542_
*586 _0543_
*587 _0544_
*588 _0545_
*589 _0546_
*590 _0547_
*591 _0548_
*592 _0549_
*593 _0550_
*594 _0551_
*595 _0552_
*596 _0553_
*597 _0554_
*598 _0555_
*599 _0556_
*600 _0557_
*601 _0558_
*602 _0559_
*603 _0560_
*604 _0561_
*605 _0562_
*606 _0563_
*607 _0564_
*608 _0565_
*609 _0566_
*610 _0567_
*611 _0568_
*612 _0569_
*613 _0570_
*614 _0571_
*615 _0572_
*616 _0573_
*617 _0574_
*618 _0575_
*619 _0576_
*620 _0577_
*621 _0578_
*622 _0579_
*623 _0580_
*624 _0581_
*625 _0582_
*626 _0583_
*627 _0584_
*628 _0585_
*629 _0586_
*630 _0587_
*631 _0588_
*632 _0589_
*633 _0590_
*634 _0591_
*635 _0592_
*636 _0593_
*637 _0594_
*638 _0595_
*639 _0596_
*640 _0597_
*641 _0598_
*642 _0599_
*643 _0600_
*644 _0601_
*645 _0602_
*646 _0603_
*647 _0604_
*648 _0605_
*649 _0606_
*650 _0607_
*651 _0608_
*652 _0609_
*653 _0610_
*654 _0611_
*655 _0612_
*656 _0613_
*657 _0614_
*658 _0615_
*659 _0616_
*660 _0617_
*661 _0618_
*662 _0619_
*663 _0620_
*664 _0621_
*665 _0622_
*666 _0623_
*667 _0624_
*668 _0625_
*669 _0626_
*670 _0627_
*671 _0628_
*672 _0629_
*673 _0630_
*674 _0631_
*675 _0632_
*676 _0633_
*677 _0634_
*678 _0635_
*679 _0636_
*680 _0637_
*681 _0638_
*682 _0639_
*683 _0640_
*684 _0641_
*685 _0642_
*686 _0643_
*687 _0644_
*688 _0645_
*689 _0646_
*690 _0647_
*691 _0648_
*692 _0649_
*693 _0650_
*694 _0651_
*695 _0652_
*696 _0653_
*697 _0654_
*698 _0655_
*699 _0656_
*700 _0657_
*701 _0658_
*702 _0659_
*703 _0660_
*704 _0661_
*705 _0662_
*706 _0663_
*707 _0664_
*708 _0665_
*709 _0666_
*710 _0667_
*711 _0668_
*712 _0669_
*713 _0670_
*714 _0671_
*715 _0672_
*716 _0673_
*717 _0674_
*718 _0675_
*719 _0676_
*720 _0677_
*721 _0678_
*722 _0679_
*723 _0680_
*724 _0681_
*725 _0682_
*726 _0683_
*727 _0684_
*728 _0685_
*729 _0686_
*730 _0687_
*731 _0688_
*732 _0689_
*733 _0690_
*734 _0691_
*735 _0692_
*736 _0693_
*737 _0694_
*738 _0695_
*739 _0696_
*740 _0697_
*741 _0698_
*742 _0699_
*743 _0700_
*744 _0701_
*745 _0702_
*746 _0703_
*747 _0704_
*748 _0705_
*749 _0706_
*750 _0707_
*751 _0708_
*752 _0709_
*753 _0710_
*754 _0711_
*755 _0712_
*756 _0713_
*757 _0714_
*758 _0715_
*759 _0716_
*760 _0717_
*761 _0718_
*762 _0719_
*763 _0720_
*764 _0721_
*765 _0722_
*766 _0723_
*767 _0724_
*768 _0725_
*769 _0726_
*770 _0727_
*771 _0728_
*772 _0729_
*773 _0730_
*774 _0731_
*775 _0732_
*776 _0733_
*777 _0734_
*778 _0735_
*779 _0736_
*780 _0737_
*781 _0738_
*782 _0739_
*783 _0740_
*784 _0741_
*785 _0742_
*786 _0743_
*787 _0744_
*788 _0745_
*789 _0746_
*790 _0747_
*791 _0748_
*792 _0749_
*793 _0750_
*794 _0751_
*795 _0752_
*796 _0753_
*797 _0754_
*798 _0755_
*799 _0756_
*800 _0757_
*801 _0758_
*802 _0759_
*803 _0760_
*804 _0761_
*805 _0762_
*806 _0763_
*807 _0764_
*808 _0765_
*809 _0766_
*810 _0767_
*811 _0768_
*812 _0769_
*813 _0770_
*814 _0771_
*815 _0772_
*816 _0773_
*817 _0774_
*818 _0775_
*819 _0776_
*820 _0777_
*821 _0778_
*822 _0779_
*823 _0780_
*824 _0781_
*825 _0782_
*826 _0783_
*827 _0784_
*828 _0785_
*829 _0786_
*830 _0787_
*831 _0788_
*832 _0789_
*833 _0790_
*834 _0791_
*835 _0792_
*836 _0793_
*837 _0794_
*838 _0795_
*839 _0796_
*840 _0797_
*841 _0798_
*842 _0799_
*843 _0800_
*844 _0801_
*845 _0802_
*846 _0803_
*847 _0804_
*848 _0805_
*849 _0806_
*850 _0807_
*851 _0808_
*852 _0809_
*853 _0810_
*854 _0811_
*855 _0812_
*856 _0813_
*857 _0814_
*858 _0815_
*859 _0816_
*860 _0817_
*861 _0818_
*862 _0819_
*863 _0820_
*864 _0821_
*865 _0822_
*866 _0823_
*867 _0824_
*868 _0825_
*869 _0826_
*870 _0827_
*871 _0828_
*872 _0829_
*873 _0830_
*874 _0831_
*875 _0832_
*876 _0833_
*877 _0834_
*878 _0835_
*879 _0836_
*880 _0837_
*881 _0838_
*882 _0839_
*883 _0840_
*884 _0841_
*885 _0842_
*886 _0843_
*887 _0844_
*888 _0845_
*889 _0846_
*890 _0847_
*891 _0848_
*892 _0849_
*893 _0850_
*894 _0851_
*895 _0852_
*896 _0853_
*897 _0854_
*898 _0855_
*899 _0856_
*900 _0857_
*901 _0858_
*902 _0859_
*903 _0860_
*904 _0861_
*905 _0862_
*906 _0863_
*907 _0864_
*908 _0865_
*909 _0866_
*910 _0867_
*911 _0868_
*912 _0869_
*913 _0870_
*914 _0871_
*915 _0872_
*916 _0873_
*917 _0874_
*918 _0875_
*919 _0876_
*920 _0877_
*921 _0878_
*922 _0879_
*923 _0880_
*924 _0881_
*925 _0882_
*926 _0883_
*927 _0884_
*928 _0885_
*929 _0886_
*930 _0887_
*931 _0888_
*932 _0889_
*933 _0890_
*934 _0891_
*935 _0892_
*936 _0893_
*937 _0894_
*938 _0895_
*939 _0896_
*940 _0897_
*941 _0898_
*942 _0899_
*943 _0900_
*944 _0901_
*945 _0902_
*946 _0903_
*947 _0904_
*948 _0905_
*949 _0906_
*950 _0907_
*951 _0908_
*952 _0909_
*953 _0910_
*954 _0911_
*955 _0912_
*956 _0913_
*957 _0914_
*958 _0915_
*959 _0916_
*960 _0917_
*961 _0918_
*962 _0919_
*963 _0920_
*964 _0921_
*965 _0922_
*966 _0923_
*967 _0924_
*968 _0925_
*969 _0926_
*970 _0927_
*971 _0928_
*972 _0929_
*973 _0930_
*974 _0931_
*975 _0932_
*976 _0933_
*977 _0934_
*978 _0935_
*979 _0936_
*980 _0937_
*981 _0938_
*982 _0939_
*983 _0940_
*984 _0941_
*985 _0942_
*986 _0943_
*987 _0944_
*988 _0945_
*989 _0946_
*990 _0947_
*991 _0948_
*992 _0949_
*993 _0950_
*994 _0951_
*995 _0952_
*996 _0953_
*997 _0954_
*998 _0955_
*999 _0956_
*1000 _0957_
*1001 _0958_
*1002 _0959_
*1003 _0960_
*1004 _0961_
*1005 _0962_
*1006 _0963_
*1007 _0964_
*1008 _0965_
*1009 _0966_
*1010 _0967_
*1011 _0968_
*1012 _0969_
*1013 _0970_
*1014 _0971_
*1015 _0972_
*1016 _0973_
*1017 _0974_
*1018 _0975_
*1019 _0976_
*1020 _0977_
*1021 _0978_
*1022 _0979_
*1023 _0980_
*1024 _0981_
*1025 _0982_
*1026 _0983_
*1027 _0984_
*1028 _0985_
*1029 _0986_
*1030 _0987_
*1031 _0988_
*1032 _0989_
*1033 _0990_
*1034 _0991_
*1035 _0992_
*1036 _0993_
*1037 _0994_
*1038 _0995_
*1039 _0996_
*1040 _0997_
*1041 _0998_
*1042 _0999_
*1043 _1000_
*1044 _1001_
*1045 _1002_
*1046 _1003_
*1047 _1004_
*1048 _1005_
*1049 _1006_
*1050 _1007_
*1051 _1008_
*1052 _1009_
*1053 _1010_
*1054 _1011_
*1055 _1012_
*1056 _1013_
*1057 _1014_
*1058 _1015_
*1059 _1016_
*1060 _1017_
*1061 _1018_
*1062 _1019_
*1063 _1020_
*1064 _1021_
*1065 _1022_
*1066 _1023_
*1067 _1024_
*1068 _1025_
*1069 _1026_
*1070 _1027_
*1071 _1028_
*1072 _1029_
*1073 _1030_
*1074 _1031_
*1075 _1032_
*1076 _1033_
*1077 _1034_
*1078 _1035_
*1079 _1036_
*1080 _1037_
*1081 _1038_
*1082 _1039_
*1083 _1040_
*1084 _1041_
*1085 _1042_
*1086 _1043_
*1087 _1044_
*1088 _1045_
*1089 _1046_
*1090 _1047_
*1091 _1048_
*1092 _1049_
*1093 _1050_
*1094 _1051_
*1095 _1052_
*1096 _1053_
*1097 _1054_
*1098 _1055_
*1099 _1056_
*1100 _1057_
*1101 _1058_
*1102 _1059_
*1103 _1060_
*1104 _1061_
*1105 _1062_
*1106 _1063_
*1107 _1064_
*1108 _1065_
*1109 _1066_
*1110 _1067_
*1111 _1068_
*1112 _1069_
*1113 _1070_
*1114 _1071_
*1115 _1072_
*1116 _1073_
*1117 _1074_
*1118 _1075_
*1119 _1076_
*1120 _1077_
*1121 _1078_
*1122 _1079_
*1123 _1080_
*1124 _1081_
*1125 _1082_
*1126 _1083_
*1127 _1084_
*1128 _1085_
*1129 _1086_
*1130 _1087_
*1131 _1088_
*1132 _1089_
*1133 _1090_
*1134 _1091_
*1135 _1092_
*1136 _1093_
*1137 _1094_
*1138 _1095_
*1139 _1096_
*1140 _1097_
*1141 _1098_
*1142 _1099_
*1143 _1100_
*1144 _1101_
*1145 _1102_
*1146 _1103_
*1147 _1104_
*1148 _1105_
*1149 _1106_
*1150 _1107_
*1151 _1108_
*1152 _1109_
*1153 _1110_
*1154 _1111_
*1155 _1112_
*1156 _1113_
*1157 _1114_
*1158 _1115_
*1159 _1116_
*1160 _1117_
*1161 _1118_
*1162 _1119_
*1163 _1120_
*1164 _1121_
*1165 _1122_
*1166 _1123_
*1167 _1124_
*1168 _1125_
*1169 _1126_
*1170 _1127_
*1171 _1128_
*1172 _1129_
*1173 _1130_
*1174 _1131_
*1175 _1132_
*1176 _1133_
*1177 _1134_
*1178 _1135_
*1179 _1136_
*1180 _1137_
*1181 _1138_
*1182 _1139_
*1183 _1140_
*1184 _1141_
*1185 _1142_
*1186 _1143_
*1187 _1144_
*1188 _1145_
*1189 _1146_
*1190 _1147_
*1191 _1148_
*1192 _1149_
*1193 _1150_
*1194 _1151_
*1195 _1152_
*1196 _1153_
*1197 _1154_
*1198 _1155_
*1199 _1156_
*1200 _1157_
*1201 _1158_
*1202 _1159_
*1203 _1160_
*1204 _1161_
*1205 _1162_
*1206 _1163_
*1207 _1164_
*1208 _1165_
*1209 _1166_
*1210 _1167_
*1211 _1168_
*1212 _1169_
*1213 _1170_
*1214 _1171_
*1215 _1172_
*1216 _1173_
*1217 _1174_
*1218 _1175_
*1219 _1176_
*1220 _1177_
*1221 _1178_
*1222 _1179_
*1223 _1180_
*1224 _1181_
*1225 _1182_
*1226 _1183_
*1227 _1184_
*1228 _1185_
*1229 _1186_
*1230 _1187_
*1231 _1188_
*1232 _1189_
*1233 active
*1234 amplitude_A\[0\]
*1235 amplitude_A\[1\]
*1236 amplitude_A\[2\]
*1237 amplitude_A\[3\]
*1238 amplitude_B\[0\]
*1239 amplitude_B\[1\]
*1240 amplitude_B\[2\]
*1241 amplitude_B\[3\]
*1242 amplitude_C\[0\]
*1243 amplitude_C\[1\]
*1244 amplitude_C\[2\]
*1245 amplitude_C\[3\]
*1246 attenuation_A\.out\[0\]
*1247 attenuation_A\.out\[1\]
*1248 attenuation_A\.out\[2\]
*1249 attenuation_A\.out\[3\]
*1250 attenuation_A\.out\[4\]
*1251 attenuation_A\.out\[5\]
*1252 attenuation_A\.out\[6\]
*1253 attenuation_A\.out\[7\]
*1254 attenuation_A\.out\[8\]
*1255 attenuation_B\.out\[0\]
*1256 attenuation_B\.out\[1\]
*1257 attenuation_B\.out\[2\]
*1258 attenuation_B\.out\[3\]
*1259 attenuation_B\.out\[4\]
*1260 attenuation_B\.out\[5\]
*1261 attenuation_B\.out\[6\]
*1262 attenuation_B\.out\[7\]
*1263 attenuation_B\.out\[8\]
*1264 attenuation_C\.out\[0\]
*1265 attenuation_C\.out\[1\]
*1266 attenuation_C\.out\[2\]
*1267 attenuation_C\.out\[3\]
*1268 attenuation_C\.out\[4\]
*1269 attenuation_C\.out\[5\]
*1270 attenuation_C\.out\[6\]
*1271 attenuation_C\.out\[7\]
*1272 attenuation_C\.out\[8\]
*1273 clk_counter\[0\]
*1274 clk_counter\[1\]
*1275 clk_counter\[2\]
*1276 clk_counter\[3\]
*1277 clk_counter\[4\]
*1278 clk_counter\[5\]
*1279 clk_counter\[6\]
*1280 clknet_0_clk
*1281 clknet_1_0__leaf_clk
*1282 clknet_1_1__leaf_clk
*1283 clknet_leaf_0_clk
*1284 clknet_leaf_10_clk
*1285 clknet_leaf_11_clk
*1286 clknet_leaf_12_clk
*1287 clknet_leaf_1_clk
*1288 clknet_leaf_2_clk
*1289 clknet_leaf_3_clk
*1290 clknet_leaf_4_clk
*1291 clknet_leaf_5_clk
*1292 clknet_leaf_6_clk
*1293 clknet_leaf_7_clk
*1294 clknet_leaf_8_clk
*1295 clknet_leaf_9_clk
*1296 envelope_A
*1297 envelope_B
*1298 envelope_C
*1299 envelope_generator\.alternate
*1300 envelope_generator\.attack
*1301 envelope_generator\.continue_
*1302 envelope_generator\.envelope_counter\[0\]
*1303 envelope_generator\.envelope_counter\[1\]
*1304 envelope_generator\.envelope_counter\[2\]
*1305 envelope_generator\.envelope_counter\[3\]
*1306 envelope_generator\.hold
*1307 envelope_generator\.invert_output
*1308 envelope_generator\.period\[0\]
*1309 envelope_generator\.period\[10\]
*1310 envelope_generator\.period\[11\]
*1311 envelope_generator\.period\[12\]
*1312 envelope_generator\.period\[13\]
*1313 envelope_generator\.period\[14\]
*1314 envelope_generator\.period\[15\]
*1315 envelope_generator\.period\[1\]
*1316 envelope_generator\.period\[2\]
*1317 envelope_generator\.period\[3\]
*1318 envelope_generator\.period\[4\]
*1319 envelope_generator\.period\[5\]
*1320 envelope_generator\.period\[6\]
*1321 envelope_generator\.period\[7\]
*1322 envelope_generator\.period\[8\]
*1323 envelope_generator\.period\[9\]
*1324 envelope_generator\.signal_edge\.previous_signal_state_0
*1325 envelope_generator\.signal_edge\.signal
*1326 envelope_generator\.stop
*1327 envelope_generator\.tone\.counter\[0\]
*1328 envelope_generator\.tone\.counter\[10\]
*1329 envelope_generator\.tone\.counter\[11\]
*1330 envelope_generator\.tone\.counter\[12\]
*1331 envelope_generator\.tone\.counter\[13\]
*1332 envelope_generator\.tone\.counter\[14\]
*1333 envelope_generator\.tone\.counter\[15\]
*1334 envelope_generator\.tone\.counter\[1\]
*1335 envelope_generator\.tone\.counter\[2\]
*1336 envelope_generator\.tone\.counter\[3\]
*1337 envelope_generator\.tone\.counter\[4\]
*1338 envelope_generator\.tone\.counter\[5\]
*1339 envelope_generator\.tone\.counter\[6\]
*1340 envelope_generator\.tone\.counter\[7\]
*1341 envelope_generator\.tone\.counter\[8\]
*1342 envelope_generator\.tone\.counter\[9\]
*1343 latched_register\[0\]
*1344 latched_register\[1\]
*1345 latched_register\[2\]
*1346 latched_register\[3\]
*1347 net1
*1348 net10
*1349 net100
*1350 net101
*1351 net102
*1352 net103
*1353 net104
*1354 net105
*1355 net106
*1356 net107
*1357 net108
*1358 net109
*1359 net11
*1360 net110
*1361 net111
*1362 net112
*1363 net113
*1364 net114
*1365 net115
*1366 net116
*1367 net117
*1368 net118
*1369 net119
*1370 net12
*1371 net120
*1372 net121
*1373 net122
*1374 net123
*1375 net124
*1376 net125
*1377 net126
*1378 net127
*1379 net128
*1380 net129
*1381 net13
*1382 net130
*1383 net131
*1384 net132
*1385 net133
*1386 net134
*1387 net135
*1388 net136
*1389 net137
*1390 net138
*1391 net139
*1392 net14
*1393 net140
*1394 net141
*1395 net142
*1396 net143
*1397 net144
*1398 net145
*1399 net146
*1400 net147
*1401 net148
*1402 net149
*1403 net15
*1404 net150
*1405 net151
*1406 net152
*1407 net153
*1408 net154
*1409 net2
*1410 net24
*1411 net25
*1412 net26
*1413 net27
*1414 net28
*1415 net29
*1416 net3
*1417 net30
*1418 net31
*1419 net32
*1420 net33
*1421 net34
*1422 net35
*1423 net36
*1424 net37
*1425 net38
*1426 net39
*1427 net4
*1428 net40
*1429 net41
*1430 net42
*1431 net43
*1432 net44
*1433 net45
*1434 net46
*1435 net47
*1436 net48
*1437 net49
*1438 net5
*1439 net50
*1440 net55
*1441 net56
*1442 net57
*1443 net58
*1444 net59
*1445 net6
*1446 net60
*1447 net61
*1448 net62
*1449 net63
*1450 net64
*1451 net65
*1452 net66
*1453 net67
*1454 net68
*1455 net69
*1456 net7
*1457 net70
*1458 net71
*1459 net72
*1460 net73
*1461 net74
*1462 net75
*1463 net76
*1464 net77
*1465 net78
*1466 net79
*1467 net8
*1468 net80
*1469 net81
*1470 net82
*1471 net83
*1472 net84
*1473 net85
*1474 net86
*1475 net87
*1476 net88
*1477 net89
*1478 net9
*1479 net90
*1480 net91
*1481 net92
*1482 net93
*1483 net94
*1484 net95
*1485 net96
*1486 net97
*1487 net98
*1488 net99
*1489 noise_disable_A
*1490 noise_disable_B
*1491 noise_disable_C
*1492 noise_generator\.lfsr\[0\]
*1493 noise_generator\.lfsr\[10\]
*1494 noise_generator\.lfsr\[11\]
*1495 noise_generator\.lfsr\[12\]
*1496 noise_generator\.lfsr\[13\]
*1497 noise_generator\.lfsr\[14\]
*1498 noise_generator\.lfsr\[15\]
*1499 noise_generator\.lfsr\[16\]
*1500 noise_generator\.lfsr\[1\]
*1501 noise_generator\.lfsr\[2\]
*1502 noise_generator\.lfsr\[3\]
*1503 noise_generator\.lfsr\[4\]
*1504 noise_generator\.lfsr\[5\]
*1505 noise_generator\.lfsr\[6\]
*1506 noise_generator\.lfsr\[7\]
*1507 noise_generator\.lfsr\[8\]
*1508 noise_generator\.lfsr\[9\]
*1509 noise_generator\.period\[0\]
*1510 noise_generator\.period\[1\]
*1511 noise_generator\.period\[2\]
*1512 noise_generator\.period\[3\]
*1513 noise_generator\.period\[4\]
*1514 noise_generator\.signal_edge\.previous_signal_state_0
*1515 noise_generator\.signal_edge\.signal
*1516 noise_generator\.tone\.counter\[0\]
*1517 noise_generator\.tone\.counter\[1\]
*1518 noise_generator\.tone\.counter\[2\]
*1519 noise_generator\.tone\.counter\[3\]
*1520 noise_generator\.tone\.counter\[4\]
*1521 pwm_A\.accumulator\[0\]
*1522 pwm_A\.accumulator\[1\]
*1523 pwm_A\.accumulator\[2\]
*1524 pwm_A\.accumulator\[3\]
*1525 pwm_A\.accumulator\[4\]
*1526 pwm_A\.accumulator\[5\]
*1527 pwm_A\.accumulator\[6\]
*1528 pwm_A\.accumulator\[7\]
*1529 pwm_A\.accumulator\[8\]
*1530 pwm_A\.accumulator\[9\]
*1531 pwm_B\.accumulator\[0\]
*1532 pwm_B\.accumulator\[1\]
*1533 pwm_B\.accumulator\[2\]
*1534 pwm_B\.accumulator\[3\]
*1535 pwm_B\.accumulator\[4\]
*1536 pwm_B\.accumulator\[5\]
*1537 pwm_B\.accumulator\[6\]
*1538 pwm_B\.accumulator\[7\]
*1539 pwm_B\.accumulator\[8\]
*1540 pwm_B\.accumulator\[9\]
*1541 pwm_C\.accumulator\[0\]
*1542 pwm_C\.accumulator\[1\]
*1543 pwm_C\.accumulator\[2\]
*1544 pwm_C\.accumulator\[3\]
*1545 pwm_C\.accumulator\[4\]
*1546 pwm_C\.accumulator\[5\]
*1547 pwm_C\.accumulator\[6\]
*1548 pwm_C\.accumulator\[7\]
*1549 pwm_C\.accumulator\[8\]
*1550 pwm_C\.accumulator\[9\]
*1551 pwm_master\.accumulator\[0\]
*1552 pwm_master\.accumulator\[10\]
*1553 pwm_master\.accumulator\[1\]
*1554 pwm_master\.accumulator\[2\]
*1555 pwm_master\.accumulator\[3\]
*1556 pwm_master\.accumulator\[4\]
*1557 pwm_master\.accumulator\[5\]
*1558 pwm_master\.accumulator\[6\]
*1559 pwm_master\.accumulator\[7\]
*1560 pwm_master\.accumulator\[8\]
*1561 pwm_master\.accumulator\[9\]
*1562 restart_envelope
*1563 tone_A_generator\.counter\[0\]
*1564 tone_A_generator\.counter\[10\]
*1565 tone_A_generator\.counter\[11\]
*1566 tone_A_generator\.counter\[1\]
*1567 tone_A_generator\.counter\[2\]
*1568 tone_A_generator\.counter\[3\]
*1569 tone_A_generator\.counter\[4\]
*1570 tone_A_generator\.counter\[5\]
*1571 tone_A_generator\.counter\[6\]
*1572 tone_A_generator\.counter\[7\]
*1573 tone_A_generator\.counter\[8\]
*1574 tone_A_generator\.counter\[9\]
*1575 tone_A_generator\.out
*1576 tone_A_generator\.period\[0\]
*1577 tone_A_generator\.period\[10\]
*1578 tone_A_generator\.period\[11\]
*1579 tone_A_generator\.period\[1\]
*1580 tone_A_generator\.period\[2\]
*1581 tone_A_generator\.period\[3\]
*1582 tone_A_generator\.period\[4\]
*1583 tone_A_generator\.period\[5\]
*1584 tone_A_generator\.period\[6\]
*1585 tone_A_generator\.period\[7\]
*1586 tone_A_generator\.period\[8\]
*1587 tone_A_generator\.period\[9\]
*1588 tone_B_generator\.counter\[0\]
*1589 tone_B_generator\.counter\[10\]
*1590 tone_B_generator\.counter\[11\]
*1591 tone_B_generator\.counter\[1\]
*1592 tone_B_generator\.counter\[2\]
*1593 tone_B_generator\.counter\[3\]
*1594 tone_B_generator\.counter\[4\]
*1595 tone_B_generator\.counter\[5\]
*1596 tone_B_generator\.counter\[6\]
*1597 tone_B_generator\.counter\[7\]
*1598 tone_B_generator\.counter\[8\]
*1599 tone_B_generator\.counter\[9\]
*1600 tone_B_generator\.out
*1601 tone_B_generator\.period\[0\]
*1602 tone_B_generator\.period\[10\]
*1603 tone_B_generator\.period\[11\]
*1604 tone_B_generator\.period\[1\]
*1605 tone_B_generator\.period\[2\]
*1606 tone_B_generator\.period\[3\]
*1607 tone_B_generator\.period\[4\]
*1608 tone_B_generator\.period\[5\]
*1609 tone_B_generator\.period\[6\]
*1610 tone_B_generator\.period\[7\]
*1611 tone_B_generator\.period\[8\]
*1612 tone_B_generator\.period\[9\]
*1613 tone_C_generator\.counter\[0\]
*1614 tone_C_generator\.counter\[10\]
*1615 tone_C_generator\.counter\[11\]
*1616 tone_C_generator\.counter\[1\]
*1617 tone_C_generator\.counter\[2\]
*1618 tone_C_generator\.counter\[3\]
*1619 tone_C_generator\.counter\[4\]
*1620 tone_C_generator\.counter\[5\]
*1621 tone_C_generator\.counter\[6\]
*1622 tone_C_generator\.counter\[7\]
*1623 tone_C_generator\.counter\[8\]
*1624 tone_C_generator\.counter\[9\]
*1625 tone_C_generator\.out
*1626 tone_C_generator\.period\[0\]
*1627 tone_C_generator\.period\[10\]
*1628 tone_C_generator\.period\[11\]
*1629 tone_C_generator\.period\[1\]
*1630 tone_C_generator\.period\[2\]
*1631 tone_C_generator\.period\[3\]
*1632 tone_C_generator\.period\[4\]
*1633 tone_C_generator\.period\[5\]
*1634 tone_C_generator\.period\[6\]
*1635 tone_C_generator\.period\[7\]
*1636 tone_C_generator\.period\[8\]
*1637 tone_C_generator\.period\[9\]
*1638 tone_disable_A
*1639 tone_disable_B
*1640 tone_disable_C
*1641 ANTENNA_1
*1642 ANTENNA_2
*1643 FILLER_0_0_119
*1644 FILLER_0_0_15
*1645 FILLER_0_0_172
*1646 FILLER_0_0_191
*1647 FILLER_0_0_195
*1648 FILLER_0_0_232
*1649 FILLER_0_0_250
*1650 FILLER_0_0_27
*1651 FILLER_0_0_275
*1652 FILLER_0_0_281
*1653 FILLER_0_0_29
*1654 FILLER_0_0_3
*1655 FILLER_0_0_325
*1656 FILLER_0_0_343
*1657 FILLER_0_0_37
*1658 FILLER_0_10_110
*1659 FILLER_0_10_13
*1660 FILLER_0_10_136
*1661 FILLER_0_10_173
*1662 FILLER_0_10_213
*1663 FILLER_0_10_22
*1664 FILLER_0_10_251
*1665 FILLER_0_10_259
*1666 FILLER_0_10_304
*1667 FILLER_0_10_330
*1668 FILLER_0_10_78
*1669 FILLER_0_11_100
*1670 FILLER_0_11_109
*1671 FILLER_0_11_133
*1672 FILLER_0_11_142
*1673 FILLER_0_11_158
*1674 FILLER_0_11_178
*1675 FILLER_0_11_194
*1676 FILLER_0_11_261
*1677 FILLER_0_11_274
*1678 FILLER_0_11_28
*1679 FILLER_0_11_281
*1680 FILLER_0_11_285
*1681 FILLER_0_11_303
*1682 FILLER_0_11_307
*1683 FILLER_0_11_311
*1684 FILLER_0_11_328
*1685 FILLER_0_11_349
*1686 FILLER_0_11_39
*1687 FILLER_0_11_89
*1688 FILLER_0_12_148
*1689 FILLER_0_12_184
*1690 FILLER_0_12_19
*1691 FILLER_0_12_202
*1692 FILLER_0_12_250
*1693 FILLER_0_12_274
*1694 FILLER_0_12_280
*1695 FILLER_0_12_29
*1696 FILLER_0_12_307
*1697 FILLER_0_12_332
*1698 FILLER_0_12_350
*1699 FILLER_0_12_83
*1700 FILLER_0_12_85
*1701 FILLER_0_13_155
*1702 FILLER_0_13_169
*1703 FILLER_0_13_180
*1704 FILLER_0_13_189
*1705 FILLER_0_13_193
*1706 FILLER_0_13_20
*1707 FILLER_0_13_223
*1708 FILLER_0_13_240
*1709 FILLER_0_13_258
*1710 FILLER_0_13_284
*1711 FILLER_0_13_288
*1712 FILLER_0_13_303
*1713 FILLER_0_13_335
*1714 FILLER_0_13_348
*1715 FILLER_0_13_47
*1716 FILLER_0_13_55
*1717 FILLER_0_13_91
*1718 FILLER_0_14_11
*1719 FILLER_0_14_154
*1720 FILLER_0_14_171
*1721 FILLER_0_14_195
*1722 FILLER_0_14_213
*1723 FILLER_0_14_224
*1724 FILLER_0_14_261
*1725 FILLER_0_14_269
*1726 FILLER_0_14_27
*1727 FILLER_0_14_3
*1728 FILLER_0_14_333
*1729 FILLER_0_14_37
*1730 FILLER_0_14_74
*1731 FILLER_0_14_83
*1732 FILLER_0_15_113
*1733 FILLER_0_15_135
*1734 FILLER_0_15_158
*1735 FILLER_0_15_162
*1736 FILLER_0_15_178
*1737 FILLER_0_15_19
*1738 FILLER_0_15_222
*1739 FILLER_0_15_304
*1740 FILLER_0_15_310
*1741 FILLER_0_15_314
*1742 FILLER_0_15_335
*1743 FILLER_0_15_342
*1744 FILLER_0_15_348
*1745 FILLER_0_15_76
*1746 FILLER_0_16_146
*1747 FILLER_0_16_179
*1748 FILLER_0_16_197
*1749 FILLER_0_16_213
*1750 FILLER_0_16_237
*1751 FILLER_0_16_250
*1752 FILLER_0_16_27
*1753 FILLER_0_16_285
*1754 FILLER_0_16_29
*1755 FILLER_0_16_304
*1756 FILLER_0_16_325
*1757 FILLER_0_16_334
*1758 FILLER_0_17_110
*1759 FILLER_0_17_127
*1760 FILLER_0_17_156
*1761 FILLER_0_17_167
*1762 FILLER_0_17_169
*1763 FILLER_0_17_175
*1764 FILLER_0_17_203
*1765 FILLER_0_17_223
*1766 FILLER_0_17_241
*1767 FILLER_0_17_27
*1768 FILLER_0_17_3
*1769 FILLER_0_17_321
*1770 FILLER_0_17_335
*1771 FILLER_0_17_350
*1772 FILLER_0_17_57
*1773 FILLER_0_18_110
*1774 FILLER_0_18_130
*1775 FILLER_0_18_145
*1776 FILLER_0_18_169
*1777 FILLER_0_18_195
*1778 FILLER_0_18_206
*1779 FILLER_0_18_213
*1780 FILLER_0_18_27
*1781 FILLER_0_18_282
*1782 FILLER_0_18_29
*1783 FILLER_0_18_3
*1784 FILLER_0_18_301
*1785 FILLER_0_18_309
*1786 FILLER_0_18_325
*1787 FILLER_0_18_82
*1788 FILLER_0_19_124
*1789 FILLER_0_19_137
*1790 FILLER_0_19_164
*1791 FILLER_0_19_185
*1792 FILLER_0_19_278
*1793 FILLER_0_19_281
*1794 FILLER_0_19_3
*1795 FILLER_0_19_302
*1796 FILLER_0_19_310
*1797 FILLER_0_19_323
*1798 FILLER_0_19_335
*1799 FILLER_0_19_343
*1800 FILLER_0_19_57
*1801 FILLER_0_19_83
*1802 FILLER_0_1_144
*1803 FILLER_0_1_179
*1804 FILLER_0_1_18
*1805 FILLER_0_1_228
*1806 FILLER_0_1_295
*1807 FILLER_0_1_341
*1808 FILLER_0_1_346
*1809 FILLER_0_1_350
*1810 FILLER_0_1_57
*1811 FILLER_0_1_6
*1812 FILLER_0_20_123
*1813 FILLER_0_20_141
*1814 FILLER_0_20_19
*1815 FILLER_0_20_197
*1816 FILLER_0_20_209
*1817 FILLER_0_20_231
*1818 FILLER_0_20_240
*1819 FILLER_0_20_246
*1820 FILLER_0_20_283
*1821 FILLER_0_20_29
*1822 FILLER_0_20_307
*1823 FILLER_0_20_325
*1824 FILLER_0_20_83
*1825 FILLER_0_20_98
*1826 FILLER_0_21_121
*1827 FILLER_0_21_137
*1828 FILLER_0_21_143
*1829 FILLER_0_21_156
*1830 FILLER_0_21_162
*1831 FILLER_0_21_19