*SPEF "ieee 1481-1999"
*DESIGN "tt_um_wokwi_377426511818305537"
*DATE "11:11:11 Fri 11 11, 1111"
*VENDOR "OpenRCX"
*PROGRAM "Parallel Extraction"
*VERSION "1.0"
*DESIGN_FLOW "NAME_SCOPE LOCAL" "PIN_CAP NONE"
*DIVIDER /
*DELIMITER :
*BUS_DELIMITER []
*T_UNIT 1 NS
*C_UNIT 1 PF
*R_UNIT 1 OHM
*L_UNIT 1 HENRY

*NAME_MAP
*3 clk
*4 ena
*5 rst_n
*6 ui_in[0]
*7 ui_in[1]
*8 ui_in[2]
*9 ui_in[3]
*10 ui_in[4]
*11 ui_in[5]
*12 ui_in[6]
*13 ui_in[7]
*14 uio_in[0]
*15 uio_in[1]
*16 uio_in[2]
*17 uio_in[3]
*18 uio_in[4]
*19 uio_in[5]
*20 uio_in[6]
*21 uio_in[7]
*22 net25
*23 net26
*24 net27
*25 net28
*26 net29
*27 net30
*28 net31
*29 net32
*30 net13
*31 net14
*32 net15
*33 net16
*34 net17
*35 net18
*36 net19
*37 net20
*38 uo_out[0]
*39 uo_out[1]
*40 uo_out[2]
*41 uo_out[3]
*42 net21
*43 net22
*44 net23
*45 net24
*46 _000_
*47 _001_
*48 _002_
*49 _003_
*50 _004_
*51 _005_
*52 _006_
*53 _007_
*54 _008_
*55 _009_
*56 _010_
*57 _011_
*58 _012_
*59 _013_
*60 _014_
*61 _015_
*62 _016_
*63 _017_
*64 _018_
*65 _019_
*66 _020_
*67 _021_
*68 _022_
*69 _023_
*70 _024_
*71 _025_
*72 _026_
*73 _027_
*74 _028_
*75 _029_
*76 _030_
*77 _031_
*78 _032_
*79 _033_
*80 _034_
*81 _035_
*82 _036_
*83 _037_
*84 _038_
*85 _039_
*86 _040_
*87 _041_
*88 _042_
*89 _043_
*90 _044_
*91 _045_
*92 _046_
*93 _047_
*94 _048_
*95 _049_
*96 _050_
*97 _051_
*98 _052_
*99 _053_
*100 _054_
*101 _055_
*102 _056_
*103 _057_
*104 _058_
*105 _059_
*106 _060_
*107 _061_
*108 _062_
*109 _063_
*110 _064_
*111 _065_
*112 _066_
*113 _067_
*114 _068_
*115 _069_
*116 _070_
*117 _071_
*118 _072_
*119 _073_
*120 _074_
*121 _075_
*122 _076_
*123 _077_
*124 _078_
*125 _079_
*126 _080_
*127 _081_
*128 _082_
*129 _083_
*130 _084_
*131 _085_
*132 _086_
*133 and1\.a
*134 and1\.b
*135 and16\.b
*136 and16\.out
*137 and17\.a
*138 and17\.b
*139 and18\.a
*140 and18\.b
*141 and19\.a
*142 and19\.b
*143 and20\.a
*144 and20\.b
*145 and21\.a
*146 and21\.b
*147 and22\.a
*148 and22\.b
*149 and23\.a
*150 and23\.b
*151 and24\.a
*152 and24\.b
*153 and25\.a
*154 and25\.b
*155 and26\.a
*156 and26\.b
*157 and27\.a
*158 and27\.b
*159 and28\.a
*160 and28\.b
*161 and29\.a
*162 and29\.b
*163 and30\.a
*164 and30\.b
*165 and31\.a
*166 and31\.b
*167 clknet_0_clk
*168 clknet_0_flop16\.clk
*169 clknet_0_flop2\.clk
*170 clknet_0_flop3\.clk
*171 clknet_1_0__leaf_clk
*172 clknet_1_0__leaf_flop16\.clk
*173 clknet_1_0__leaf_flop2\.clk
*174 clknet_1_0__leaf_flop3\.clk
*175 clknet_1_1__leaf_clk
*176 clknet_1_1__leaf_flop16\.clk
*177 clknet_1_1__leaf_flop2\.clk
*178 clknet_1_1__leaf_flop3\.clk
*179 flop1\.d
*180 flop1\.q
*181 flop10\.clk
*182 flop10\.d
*183 flop10\.q
*184 flop11\.q
*185 flop12\.q
*186 flop13\.q
*187 flop14\.q
*188 flop15\.clk
*189 flop15\.d
*190 flop16\.clk
*191 flop16\.d
*192 flop16\.q
*193 flop17\.d
*194 flop17\.q
*195 flop18\.d
*196 flop18\.q
*197 flop19\.d
*198 flop19\.q
*199 flop2\.clk
*200 flop2\.d
*201 flop2\.q
*202 flop20\.d
*203 flop20\.q
*204 flop21\.d
*205 flop21\.q
*206 flop22\.d
*207 flop22\.q
*208 flop23\.d
*209 flop23\.q
*210 flop3\.clk
*211 flop3\.d
*212 flop3\.q
*213 flop32\.d
*214 flop32\.q
*215 flop33\.q
*216 flop4\.d
*217 flop4\.q
*218 flop48\.clk
*219 flop48\.d
*220 flop48\.q
*221 flop5\.d
*222 flop5\.q
*223 flop6\.d
*224 flop6\.q
*225 flop64\.d
*226 flop64\.q
*227 flop65\.q
*228 flop67\.clk
*229 flop67\.d
*230 flop7\.d
*231 flop7\.q
*232 flop8\.d
*233 flop85\.d
*234 flop85\.q
*235 flop86\.d
*236 flop86\.q
*237 flop87\.d
*238 flop87\.q
*239 flop88\.d
*240 flop88\.q
*241 flop89\.d
*242 flop89\.q
*243 flop90\.d
*244 flop90\.q
*245 flop91\.d
*246 flop91\.q
*247 flop92\.d
*248 flop92\.q
*249 net1
*250 net10
*251 net11
*252 net12
*253 net2
*254 net3
*255 net33
*256 net34
*257 net35
*258 net36
*259 net37
*260 net4
*261 net5
*262 net6
*263 net7
*264 net8
*265 net9
*266 FILLER_0_0_109
*267 FILLER_0_0_113
*268 FILLER_0_0_125
*269 FILLER_0_0_137
*270 FILLER_0_0_141
*271 FILLER_0_0_15
*272 FILLER_0_0_153
*273 FILLER_0_0_165
*274 FILLER_0_0_169
*275 FILLER_0_0_181
*276 FILLER_0_0_193
*277 FILLER_0_0_197
*278 FILLER_0_0_209
*279 FILLER_0_0_221
*280 FILLER_0_0_225
*281 FILLER_0_0_237
*282 FILLER_0_0_249
*283 FILLER_0_0_253
*284 FILLER_0_0_265
*285 FILLER_0_0_27
*286 FILLER_0_0_277
*287 FILLER_0_0_281
*288 FILLER_0_0_29
*289 FILLER_0_0_293
*290 FILLER_0_0_3
*291 FILLER_0_0_305
*292 FILLER_0_0_309
*293 FILLER_0_0_321
*294 FILLER_0_0_333
*295 FILLER_0_0_337
*296 FILLER_0_0_349
*297 FILLER_0_0_41
*298 FILLER_0_0_53
*299 FILLER_0_0_57
*300 FILLER_0_0_69
*301 FILLER_0_0_81
*302 FILLER_0_0_85
*303 FILLER_0_0_97
*304 FILLER_0_10_109
*305 FILLER_0_10_121
*306 FILLER_0_10_133
*307 FILLER_0_10_139
*308 FILLER_0_10_141
*309 FILLER_0_10_15
*310 FILLER_0_10_153
*311 FILLER_0_10_165
*312 FILLER_0_10_177
*313 FILLER_0_10_189
*314 FILLER_0_10_195
*315 FILLER_0_10_197
*316 FILLER_0_10_209
*317 FILLER_0_10_221
*318 FILLER_0_10_233
*319 FILLER_0_10_245
*320 FILLER_0_10_251
*321 FILLER_0_10_253
*322 FILLER_0_10_265
*323 FILLER_0_10_27
*324 FILLER_0_10_277
*325 FILLER_0_10_289
*326 FILLER_0_10_29
*327 FILLER_0_10_3
*328 FILLER_0_10_301
*329 FILLER_0_10_307
*330 FILLER_0_10_309
*331 FILLER_0_10_321
*332 FILLER_0_10_333
*333 FILLER_0_10_345
*334 FILLER_0_10_41
*335 FILLER_0_10_53
*336 FILLER_0_10_65
*337 FILLER_0_10_77
*338 FILLER_0_10_83
*339 FILLER_0_10_85
*340 FILLER_0_10_97
*341 FILLER_0_11_105
*342 FILLER_0_11_111
*343 FILLER_0_11_113
*344 FILLER_0_11_125
*345 FILLER_0_11_137
*346 FILLER_0_11_149
*347 FILLER_0_11_15
*348 FILLER_0_11_161
*349 FILLER_0_11_167
*350 FILLER_0_11_169
*351 FILLER_0_11_181
*352 FILLER_0_11_193
*353 FILLER_0_11_205
*354 FILLER_0_11_217
*355 FILLER_0_11_223
*356 FILLER_0_11_225
*357 FILLER_0_11_237
*358 FILLER_0_11_249
*359 FILLER_0_11_261
*360 FILLER_0_11_27
*361 FILLER_0_11_273
*362 FILLER_0_11_279
*363 FILLER_0_11_281
*364 FILLER_0_11_293
*365 FILLER_0_11_3
*366 FILLER_0_11_305
*367 FILLER_0_11_317
*368 FILLER_0_11_329
*369 FILLER_0_11_335
*370 FILLER_0_11_337
*371 FILLER_0_11_349
*372 FILLER_0_11_39
*373 FILLER_0_11_51
*374 FILLER_0_11_55
*375 FILLER_0_11_57
*376 FILLER_0_11_69
*377 FILLER_0_11_81
*378 FILLER_0_11_93
*379 FILLER_0_12_109
*380 FILLER_0_12_121
*381 FILLER_0_12_133
*382 FILLER_0_12_139
*383 FILLER_0_12_141
*384 FILLER_0_12_15
*385 FILLER_0_12_153
*386 FILLER_0_12_165
*387 FILLER_0_12_177
*388 FILLER_0_12_189
*389 FILLER_0_12_195
*390 FILLER_0_12_197
*391 FILLER_0_12_209
*392 FILLER_0_12_221
*393 FILLER_0_12_233
*394 FILLER_0_12_245
*395 FILLER_0_12_251
*396 FILLER_0_12_253
*397 FILLER_0_12_265
*398 FILLER_0_12_27
*399 FILLER_0_12_277
*400 FILLER_0_12_289
*401 FILLER_0_12_29
*402 FILLER_0_12_3
*403 FILLER_0_12_301
*404 FILLER_0_12_307
*405 FILLER_0_12_309
*406 FILLER_0_12_321
*407 FILLER_0_12_333
*408 FILLER_0_12_345
*409 FILLER_0_12_41
*410 FILLER_0_12_53
*411 FILLER_0_12_65
*412 FILLER_0_12_77
*413 FILLER_0_12_83
*414 FILLER_0_12_85
*415 FILLER_0_12_97
*416 FILLER_0_13_105
*417 FILLER_0_13_111
*418 FILLER_0_13_113
*419 FILLER_0_13_125
*420 FILLER_0_13_137
*421 FILLER_0_13_149
*422 FILLER_0_13_15
*423 FILLER_0_13_161
*424 FILLER_0_13_167
*425 FILLER_0_13_169
*426 FILLER_0_13_181
*427 FILLER_0_13_193
*428 FILLER_0_13_205
*429 FILLER_0_13_217
*430 FILLER_0_13_223
*431 FILLER_0_13_225
*432 FILLER_0_13_237
*433 FILLER_0_13_249
*434 FILLER_0_13_261
*435 FILLER_0_13_27
*436 FILLER_0_13_273
*437 FILLER_0_13_279
*438 FILLER_0_13_281
*439 FILLER_0_13_293
*440 FILLER_0_13_3
*441 FILLER_0_13_305
*442 FILLER_0_13_317
*443 FILLER_0_13_329
*444 FILLER_0_13_335
*445 FILLER_0_13_337
*446 FILLER_0_13_349
*447 FILLER_0_13_39
*448 FILLER_0_13_51
*449 FILLER_0_13_55
*450 FILLER_0_13_57
*451 FILLER_0_13_69
*452 FILLER_0_13_81
*453 FILLER_0_13_93
*454 FILLER_0_14_109
*455 FILLER_0_14_121
*456 FILLER_0_14_133
*457 FILLER_0_14_139
*458 FILLER_0_14_141
*459 FILLER_0_14_15
*460 FILLER_0_14_153
*461 FILLER_0_14_165
*462 FILLER_0_14_177
*463 FILLER_0_14_189
*464 FILLER_0_14_195
*465 FILLER_0_14_197
*466 FILLER_0_14_209
*467 FILLER_0_14_221
*468 FILLER_0_14_233
*469 FILLER_0_14_245
*470 FILLER_0_14_251
*471 FILLER_0_14_253
*472 FILLER_0_14_265
*473 FILLER_0_14_27
*474 FILLER_0_14_277
*475 FILLER_0_14_289
*476 FILLER_0_14_29
*477 FILLER_0_14_3
*478 FILLER_0_14_301
*479 FILLER_0_14_307
*480 FILLER_0_14_309
*481 FILLER_0_14_321
*482 FILLER_0_14_333
*483 FILLER_0_14_345
*484 FILLER_0_14_41
*485 FILLER_0_14_53
*486 FILLER_0_14_65
*487 FILLER_0_14_77
*488 FILLER_0_14_83
*489 FILLER_0_14_85
*490 FILLER_0_14_97
*491 FILLER_0_15_105
*492 FILLER_0_15_111
*493 FILLER_0_15_113
*494 FILLER_0_15_125
*495 FILLER_0_15_137
*496 FILLER_0_15_149
*497 FILLER_0_15_15
*498 FILLER_0_15_161
*499 FILLER_0_15_167
*500 FILLER_0_15_169
*501 FILLER_0_15_181
*502 FILLER_0_15_193
*503 FILLER_0_15_205
*504 FILLER_0_15_217
*505 FILLER_0_15_223
*506 FILLER_0_15_225
*507 FILLER_0_15_237
*508 FILLER_0_15_249
*509 FILLER_0_15_261
*510 FILLER_0_15_27
*511 FILLER_0_15_273
*512 FILLER_0_15_279
*513 FILLER_0_15_281
*514 FILLER_0_15_293
*515 FILLER_0_15_3
*516 FILLER_0_15_305
*517 FILLER_0_15_317
*518 FILLER_0_15_329
*519 FILLER_0_15_335
*520 FILLER_0_15_337
*521 FILLER_0_15_349
*522 FILLER_0_15_39
*523 FILLER_0_15_51
*524 FILLER_0_15_55
*525 FILLER_0_15_57
*526 FILLER_0_15_69
*527 FILLER_0_15_81
*528 FILLER_0_15_93
*529 FILLER_0_16_109
*530 FILLER_0_16_121
*531 FILLER_0_16_133
*532 FILLER_0_16_139
*533 FILLER_0_16_141
*534 FILLER_0_16_15
*535 FILLER_0_16_153
*536 FILLER_0_16_165
*537 FILLER_0_16_177
*538 FILLER_0_16_189
*539 FILLER_0_16_195
*540 FILLER_0_16_197
*541 FILLER_0_16_209
*542 FILLER_0_16_221
*543 FILLER_0_16_233
*544 FILLER_0_16_245
*545 FILLER_0_16_251
*546 FILLER_0_16_253
*547 FILLER_0_16_265
*548 FILLER_0_16_27
*549 FILLER_0_16_277
*550 FILLER_0_16_289
*551 FILLER_0_16_29
*552 FILLER_0_16_3
*553 FILLER_0_16_301
*554 FILLER_0_16_307
*555 FILLER_0_16_309
*556 FILLER_0_16_321
*557 FILLER_0_16_333
*558 FILLER_0_16_345
*559 FILLER_0_16_41
*560 FILLER_0_16_53
*561 FILLER_0_16_65
*562 FILLER_0_16_77
*563 FILLER_0_16_83
*564 FILLER_0_16_85
*565 FILLER_0_16_97
*566 FILLER_0_17_105
*567 FILLER_0_17_111
*568 FILLER_0_17_113
*569 FILLER_0_17_125
*570 FILLER_0_17_137
*571 FILLER_0_17_149
*572 FILLER_0_17_15
*573 FILLER_0_17_161
*574 FILLER_0_17_167
*575 FILLER_0_17_169
*576 FILLER_0_17_181
*577 FILLER_0_17_193
*578 FILLER_0_17_205
*579 FILLER_0_17_217
*580 FILLER_0_17_223
*581 FILLER_0_17_225
*582 FILLER_0_17_237
*583 FILLER_0_17_249
*584 FILLER_0_17_261
*585 FILLER_0_17_27
*586 FILLER_0_17_273
*587 FILLER_0_17_279
*588 FILLER_0_17_281
*589 FILLER_0_17_293
*590 FILLER_0_17_3
*591 FILLER_0_17_305
*592 FILLER_0_17_317
*593 FILLER_0_17_329
*594 FILLER_0_17_335
*595 FILLER_0_17_337
*596 FILLER_0_17_349
*597 FILLER_0_17_39
*598 FILLER_0_17_51
*599 FILLER_0_17_55
*600 FILLER_0_17_57
*601 FILLER_0_17_69
*602 FILLER_0_17_81
*603 FILLER_0_17_93
*604 FILLER_0_18_109
*605 FILLER_0_18_121
*606 FILLER_0_18_133
*607 FILLER_0_18_139
*608 FILLER_0_18_141
*609 FILLER_0_18_15
*610 FILLER_0_18_153
*611 FILLER_0_18_165
*612 FILLER_0_18_177
*613 FILLER_0_18_189
*614 FILLER_0_18_195
*615 FILLER_0_18_197
*616 FILLER_0_18_209
*617 FILLER_0_18_221
*618 FILLER_0_18_233
*619 FILLER_0_18_245
*620 FILLER_0_18_251
*621 FILLER_0_18_253
*622 FILLER_0_18_265
*623 FILLER_0_18_27
*624 FILLER_0_18_277
*625 FILLER_0_18_289
*626 FILLER_0_18_29
*627 FILLER_0_18_3
*628 FILLER_0_18_301
*629 FILLER_0_18_307
*630 FILLER_0_18_309
*631 FILLER_0_18_321
*632 FILLER_0_18_333
*633 FILLER_0_18_345
*634 FILLER_0_18_41
*635 FILLER_0_18_53
*636 FILLER_0_18_65
*637 FILLER_0_18_77
*638 FILLER_0_18_83
*639 FILLER_0_18_85
*640 FILLER_0_18_97
*641 FILLER_0_19_105
*642 FILLER_0_19_111
*643 FILLER_0_19_113
*644 FILLER_0_19_125
*645 FILLER_0_19_137
*646 FILLER_0_19_149
*647 FILLER_0_19_15
*648 FILLER_0_19_161
*649 FILLER_0_19_167
*650 FILLER_0_19_169
*651 FILLER_0_19_181
*652 FILLER_0_19_193
*653 FILLER_0_19_205
*654 FILLER_0_19_217
*655 FILLER_0_19_223
*656 FILLER_0_19_225
*657 FILLER_0_19_237
*658 FILLER_0_19_249
*659 FILLER_0_19_261
*660 FILLER_0_19_27
*661 FILLER_0_19_273
*662 FILLER_0_19_279
*663 FILLER_0_19_281
*664 FILLER_0_19_293
*665 FILLER_0_19_3
*666 FILLER_0_19_305
*667 FILLER_0_19_317
*668 FILLER_0_19_329
*669 FILLER_0_19_335
*670 FILLER_0_19_337
*671 FILLER_0_19_349
*672 FILLER_0_19_39
*673 FILLER_0_19_51
*674 FILLER_0_19_55
*675 FILLER_0_19_57
*676 FILLER_0_19_69
*677 FILLER_0_19_81
*678 FILLER_0_19_93
*679 FILLER_0_1_105
*680 FILLER_0_1_111
*681 FILLER_0_1_113
*682 FILLER_0_1_125
*683 FILLER_0_1_137
*684 FILLER_0_1_149
*685 FILLER_0_1_15
*686 FILLER_0_1_161
*687 FILLER_0_1_167
*688 FILLER_0_1_169
*689 FILLER_0_1_181
*690 FILLER_0_1_193
*691 FILLER_0_1_205
*692 FILLER_0_1_217
*693 FILLER_0_1_223
*694 FILLER_0_1_225
*695 FILLER_0_1_237
*696 FILLER_0_1_249
*697 FILLER_0_1_261
*698 FILLER_0_1_27
*699 FILLER_0_1_273
*700 FILLER_0_1_279
*701 FILLER_0_1_281
*702 FILLER_0_1_293
*703 FILLER_0_1_3
*704 FILLER_0_1_305
*705 FILLER_0_1_317
*706 FILLER_0_1_329
*707 FILLER_0_1_335
*708 FILLER_0_1_337
*709 FILLER_0_1_349
*710 FILLER_0_1_39
*711 FILLER_0_1_51
*712 FILLER_0_1_55
*713 FILLER_0_1_57
*714 FILLER_0_1_69
*715 FILLER_0_1_81
*716 FILLER_0_1_93
*717 FILLER_0_20_109
*718 FILLER_0_20_121
*719 FILLER_0_20_133
*720 FILLER_0_20_139
*721 FILLER_0_20_141
*722 FILLER_0_20_15
*723 FILLER_0_20_153
*724 FILLER_0_20_165
*725 FILLER_0_20_177
*726 FILLER_0_20_189
*727 FILLER_0_20_195
*728 FILLER_0_20_197
*729 FILLER_0_20_209
*730 FILLER_0_20_221
*731 FILLER_0_20_233
*732 FILLER_0_20_245
*733 FILLER_0_20_251
*734 FILLER_0_20_253
*735 FILLER_0_20_265
*736 FILLER_0_20_27
*737 FILLER_0_20_277
*738 FILLER_0_20_289
*739 FILLER_0_20_29
*740 FILLER_0_20_3
*741 FILLER_0_20_301
*742 FILLER_0_20_307
*743 FILLER_0_20_309
*744 FILLER_0_20_321
*745 FILLER_0_20_333
*746 FILLER_0_20_345
*747 FILLER_0_20_41
*748 FILLER_0_20_53
*749 FILLER_0_20_65
*750 FILLER_0_20_77
*751 FILLER_0_20_83
*752 FILLER_0_20_85
*753 FILLER_0_20_97
*754 FILLER_0_21_105
*755 FILLER_0_21_111
*756 FILLER_0_21_113
*757 FILLER_0_21_125
*758 FILLER_0_21_137
*759 FILLER_0_21_149
*760 FILLER_0_21_15
*761 FILLER_0_21_161
*762 FILLER_0_21_167
*763 FILLER_0_21_169
*764 FILLER_0_21_181
*765 FILLER_0_21_193
*766 FILLER_0_21_205
*767 FILLER_0_21_217
*768 FILLER_0_21_223
*769 FILLER_0_21_225
*770 FILLER_0_21_237
*771 FILLER_0_21_249
*772 FILLER_0_21_261
*773 FILLER_0_21_27
*774 FILLER_0_21_273
*775 FILLER_0_21_279
*776 FILLER_0_21_281
*777 FILLER_0_21_293
*778 FILLER_0_21_3
*779 FILLER_0_21_305
*780 FILLER_0_21_317
*781 FILLER_0_21_329
*782 FILLER_0_21_335
*783 FILLER_0_21_337
*784 FILLER_0_21_349
*785 FILLER_0_21_39
*786 FILLER_0_21_51
*787 FILLER_0_21_55
*788 FILLER_0_21_57
*789 FILLER_0_21_69
*790 FILLER_0_21_81
*791 FILLER_0_21_93
*792 FILLER_0_22_109
*793 FILLER_0_22_121
*794 FILLER_0_22_133
*795 FILLER_0_22_139
*796 FILLER_0_22_141
*797 FILLER_0_22_15
*798 FILLER_0_22_153
*799 FILLER_0_22_165
*800 FILLER_0_22_177
*801 FILLER_0_22_189
*802 FILLER_0_22_195
*803 FILLER_0_22_197
*804 FILLER_0_22_209
*805 FILLER_0_22_221
*806 FILLER_0_22_233
*807 FILLER_0_22_245
*808 FILLER_0_22_251
*809 FILLER_0_22_253
*810 FILLER_0_22_265
*811 FILLER_0_22_27
*812 FILLER_0_22_277
*813 FILLER_0_22_289
*814 FILLER_0_22_29
*815 FILLER_0_22_3
*816 FILLER_0_22_301
*817 FILLER_0_22_307
*818 FILLER_0_22_309
*819 FILLER_0_22_321
*820 FILLER_0_22_333
*821 FILLER_0_22_345
*822 FILLER_0_22_41
*823 FILLER_0_22_53
*824 FILLER_0_22_65
*825 FILLER_0_22_77
*826 FILLER_0_22_83
*827 FILLER_0_22_85
*828 FILLER_0_22_97
*829 FILLER_0_23_105
*830 FILLER_0_23_111
*831 FILLER_0_23_113
*832 FILLER_0_23_125
*833 FILLER_0_23_137
*834 FILLER_0_23_149
*835 FILLER_0_23_15
*836 FILLER_0_23_161
*837 FILLER_0_23_167
*838 FILLER_0_23_169
*839 FILLER_0_23_181
*840 FILLER_0_23_193
*841 FILLER_0_23_221
*842 FILLER_0_23_225
*843 FILLER_0_23_237
*844 FILLER_0_23_249
*845 FILLER_0_23_261
*846 FILLER_0_23_27
*847 FILLER_0_23_273
*848 FILLER_0_23_279
*849 FILLER_0_23_281
*850 FILLER_0_23_293
*851 FILLER_0_23_3
*852 FILLER_0_23_305
*853 FILLER_0_23_317
*854 FILLER_0_23_329
*855 FILLER_0_23_335
*856 FILLER_0_23_337
*857 FILLER_0_23_349
*858 FILLER_0_23_39
*859 FILLER_0_23_51
*860 FILLER_0_23_55
*861 FILLER_0_23_57
*862 FILLER_0_23_69
*863 FILLER_0_23_81
*864 FILLER_0_23_93
*865 FILLER_0_24_109
*866 FILLER_0_24_121
*867 FILLER_0_24_133
*868 FILLER_0_24_139
*869 FILLER_0_24_15
*870 FILLER_0_24_161
*871 FILLER_0_24_165
*872 FILLER_0_24_186
*873 FILLER_0_24_194
*874 FILLER_0_24_217
*875 FILLER_0_24_223
*876 FILLER_0_24_244
*877 FILLER_0_24_253
*878 FILLER_0_24_265
*879 FILLER_0_24_27
*880 FILLER_0_24_277
*881 FILLER_0_24_285
*882 FILLER_0_24_29
*883 FILLER_0_24_3
*884 FILLER_0_24_309
*885 FILLER_0_24_317
*886 FILLER_0_24_339
*887 FILLER_0_24_41
*888 FILLER_0_24_53
*889 FILLER_0_24_65
*890 FILLER_0_24_77
*891 FILLER_0_24_83
*892 FILLER_0_24_85
*893 FILLER_0_24_97
*894 FILLER_0_25_105
*895 FILLER_0_25_111
*896 FILLER_0_25_113
*897 FILLER_0_25_125
*898 FILLER_0_25_137
*899 FILLER_0_25_141
*900 FILLER_0_25_15
*901 FILLER_0_25_162
*902 FILLER_0_25_189
*903 FILLER_0_25_195
*904 FILLER_0_25_223
*905 FILLER_0_25_245
*906 FILLER_0_25_27
*907 FILLER_0_25_271
*908 FILLER_0_25_279
*909 FILLER_0_25_281
*910 FILLER_0_25_293
*911 FILLER_0_25_3
*912 FILLER_0_25_305
*913 FILLER_0_25_317
*914 FILLER_0_25_329
*915 FILLER_0_25_335
*916 FILLER_0_25_337
*917 FILLER_0_25_349
*918 FILLER_0_25_39
*919 FILLER_0_25_51
*920 FILLER_0_25_55
*921 FILLER_0_25_57
*922 FILLER_0_25_69
*923 FILLER_0_25_81
*924 FILLER_0_25_93
*925 FILLER_0_26_109
*926 FILLER_0_26_137
*927 FILLER_0_26_141
*928 FILLER_0_26_15
*929 FILLER_0_26_153
*930 FILLER_0_26_161
*931 FILLER_0_26_168
*932 FILLER_0_26_173
*933 FILLER_0_26_185
*934 FILLER_0_26_195
*935 FILLER_0_26_207
*936 FILLER_0_26_229
*937 FILLER_0_26_244
*938 FILLER_0_26_250
*939 FILLER_0_26_27
*940 FILLER_0_26_273
*941 FILLER_0_26_285
*942 FILLER_0_26_29
*943 FILLER_0_26_297
*944 FILLER_0_26_3
*945 FILLER_0_26_305
*946 FILLER_0_26_309
*947 FILLER_0_26_314
*948 FILLER_0_26_336
*949 FILLER_0_26_348
*950 FILLER_0_26_41
*951 FILLER_0_26_53
*952 FILLER_0_26_65
*953 FILLER_0_26_77
*954 FILLER_0_26_83
*955 FILLER_0_26_85
*956 FILLER_0_26_97
*957 FILLER_0_27_105
*958 FILLER_0_27_111
*959 FILLER_0_27_113
*960 FILLER_0_27_141
*961 FILLER_0_27_15
*962 FILLER_0_27_179
*963 FILLER_0_27_187
*964 FILLER_0_27_195
*965 FILLER_0_27_223
*966 FILLER_0_27_228
*967 FILLER_0_27_232
*968 FILLER_0_27_256
*969 FILLER_0_27_27
*970 FILLER_0_27_279
*971 FILLER_0_27_281
*972 FILLER_0_27_293
*973 FILLER_0_27_3
*974 FILLER_0_27_304
*975 FILLER_0_27_337
*976 FILLER_0_27_349
*977 FILLER_0_27_39
*978 FILLER_0_27_51
*979 FILLER_0_27_55
*980 FILLER_0_27_57
*981 FILLER_0_27_69
*982 FILLER_0_27_81
*983 FILLER_0_27_93
*984 FILLER_0_28_109
*985 FILLER_0_28_121
*986 FILLER_0_28_133
*987 FILLER_0_28_139
*988 FILLER_0_28_141
*989 FILLER_0_28_15
*990 FILLER_0_28_186
*991 FILLER_0_28_194
*992 FILLER_0_28_197
*993 FILLER_0_28_203
*994 FILLER_0_28_215
*995 FILLER_0_28_224
*996 FILLER_0_28_236
*997 FILLER_0_28_240
*998 FILLER_0_28_248
*999 FILLER_0_28_27
*1000 FILLER_0_28_284
*1001 FILLER_0_28_29
*1002 FILLER_0_28_3
*1003 FILLER_0_28_309
*1004 FILLER_0_28_339
*1005 FILLER_0_28_41
*1006 FILLER_0_28_53
*1007 FILLER_0_28_65
*1008 FILLER_0_28_77
*1009 FILLER_0_28_83
*1010 FILLER_0_28_85
*1011 FILLER_0_28_97
*1012 FILLER_0_29_105
*1013 FILLER_0_29_111
*1014 FILLER_0_29_133
*1015 FILLER_0_29_15
*1016 FILLER_0_29_163
*1017 FILLER_0_29_167
*1018 FILLER_0_29_169
*1019 FILLER_0_29_191
*1020 FILLER_0_29_203
*1021 FILLER_0_29_210
*1022 FILLER_0_29_222
*1023 FILLER_0_29_225
*1024 FILLER_0_29_237
*1025 FILLER_0_29_245
*1026 FILLER_0_29_27
*1027 FILLER_0_29_272
*1028 FILLER_0_29_281
*1029 FILLER_0_29_289
*1030 FILLER_0_29_3
*1031 FILLER_0_29_310
*1032 FILLER_0_29_335
*1033 FILLER_0_29_345
*1034 FILLER_0_29_39
*1035 FILLER_0_29_51
*1036 FILLER_0_29_55
*1037 FILLER_0_29_57
*1038 FILLER_0_29_69
*1039 FILLER_0_29_81
*1040 FILLER_0_29_93
*1041 FILLER_0_2_109
*1042 FILLER_0_2_121
*1043 FILLER_0_2_133
*1044 FILLER_0_2_139
*1045 FILLER_0_2_141
*1046 FILLER_0_2_15
*1047 FILLER_0_2_153
*1048 FILLER_0_2_165
*1049 FILLER_0_2_177
*1050 FILLER_0_2_189
*1051 FILLER_0_2_195
*1052 FILLER_0_2_197
*1053 FILLER_0_2_209
*1054 FILLER_0_2_221
*1055 FILLER_0_2_233
*1056 FILLER_0_2_245
*1057 FILLER_0_2_251
*1058 FILLER_0_2_253
*1059 FILLER_0_2_265
*1060 FILLER_0_2_27
*1061 FILLER_0_2_277
*1062 FILLER_0_2_289
*1063 FILLER_0_2_29
*1064 FILLER_0_2_3
*1065 FILLER_0_2_301
*1066 FILLER_0_2_307
*1067 FILLER_0_2_309
*1068 FILLER_0_2_321
*1069 FILLER_0_2_333
*1070 FILLER_0_2_345
*1071 FILLER_0_2_41
*1072 FILLER_0_2_53
*1073 FILLER_0_2_65
*1074 FILLER_0_2_77
*1075 FILLER_0_2_83
*1076 FILLER_0_2_85
*1077 FILLER_0_2_97
*1078 FILLER_0_30_109
*1079 FILLER_0_30_131
*1080 FILLER_0_30_139
*1081 FILLER_0_30_141
*1082 FILLER_0_30_149
*1083 FILLER_0_30_15
*1084 FILLER_0_30_166
*1085 FILLER_0_30_173
*1086 FILLER_0_30_183
*1087 FILLER_0_30_195
*1088 FILLER_0_30_213
*1089 FILLER_0_30_244
*1090 FILLER_0_30_253
*1091 FILLER_0_30_257
*1092 FILLER_0_30_27
*1093 FILLER_0_30_278
*1094 FILLER_0_30_29
*1095 FILLER_0_30_290
*1096 FILLER_0_30_3
*1097 FILLER_0_30_348
*1098 FILLER_0_30_41
*1099 FILLER_0_30_53
*1100 FILLER_0_30_65
*1101 FILLER_0_30_77
*1102 FILLER_0_30_83
*1103 FILLER_0_30_85
*1104 FILLER_0_30_97
*1105 FILLER_0_31_105
*1106 FILLER_0_31_111
*1107 FILLER_0_31_133
*1108 FILLER_0_31_139
*1109 FILLER_0_31_15
*1110 FILLER_0_31_167
*1111 FILLER_0_31_169
*1112 FILLER_0_31_181
*1113 FILLER_0_31_193
*1114 FILLER_0_31_197
*1115 FILLER_0_31_223
*1116 FILLER_0_31_245
*1117 FILLER_0_31_251
*1118 FILLER_0_31_27
*1119 FILLER_0_31_279
*1120 FILLER_0_31_284
*1121 FILLER_0_31_296
*1122 FILLER_0_31_3
*1123 FILLER_0_31_335
*1124 FILLER_0_31_349
*1125 FILLER_0_31_39
*1126 FILLER_0_31_51
*1127 FILLER_0_31_55
*1128 FILLER_0_31_57
*1129 FILLER_0_31_69
*1130 FILLER_0_31_81
*1131 FILLER_0_31_93
*1132 FILLER_0_32_109
*1133 FILLER_0_32_130
*1134 FILLER_0_32_138
*1135 FILLER_0_32_141
*1136 FILLER_0_32_15
*1137 FILLER_0_32_160
*1138 FILLER_0_32_172
*1139 FILLER_0_32_184
*1140 FILLER_0_32_195
*1141 FILLER_0_32_200
*1142 FILLER_0_32_237
*1143 FILLER_0_32_245
*1144 FILLER_0_32_251
*1145 FILLER_0_32_253
*1146 FILLER_0_32_260
*1147 FILLER_0_32_27
*1148 FILLER_0_32_281
*1149 FILLER_0_32_287
*1150 FILLER_0_32_29
*1151 FILLER_0_32_3
*1152 FILLER_0_32_41
*1153 FILLER_0_32_53
*1154 FILLER_0_32_65
*1155 FILLER_0_32_77
*1156 FILLER_0_32_83
*1157 FILLER_0_32_85
*1158 FILLER_0_32_97
*1159 FILLER_0_33_105
*1160 FILLER_0_33_111
*1161 FILLER_0_33_113
*1162 FILLER_0_33_125
*1163 FILLER_0_33_15
*1164 FILLER_0_33_151
*1165 FILLER_0_33_169
*1166 FILLER_0_33_181
*1167 FILLER_0_33_193
*1168 FILLER_0_33_201
*1169 FILLER_0_33_206
*1170 FILLER_0_33_210
*1171 FILLER_0_33_221
*1172 FILLER_0_33_225
*1173 FILLER_0_33_237
*1174 FILLER_0_33_249
*1175 FILLER_0_33_257
*1176 FILLER_0_33_266
*1177 FILLER_0_33_27
*1178 FILLER_0_33_278
*1179 FILLER_0_33_281
*1180 FILLER_0_33_299
*1181 FILLER_0_33_3
*1182 FILLER_0_33_345
*1183 FILLER_0_33_39
*1184 FILLER_0_33_51
*1185 FILLER_0_33_55
*1186 FILLER_0_33_57
*1187 FILLER_0_33_69
*1188 FILLER_0_33_81
*1189 FILLER_0_33_93
*1190 FILLER_0_34_105
*1191 FILLER_0_34_126
*1192 FILLER_0_34_138
*1193 FILLER_0_34_141
*1194 FILLER_0_34_15
*1195 FILLER_0_34_157
*1196 FILLER_0_34_169
*1197 FILLER_0_34_183
*1198 FILLER_0_34_195
*1199 FILLER_0_34_197
*1200 FILLER_0_34_209
*1201 FILLER_0_34_221
*1202 FILLER_0_34_229
*1203 FILLER_0_34_235
*1204 FILLER_0_34_247
*1205 FILLER_0_34_251
*1206 FILLER_0_34_253
*1207 FILLER_0_34_260
*1208 FILLER_0_34_27
*1209 FILLER_0_34_286
*1210 FILLER_0_34_29
*1211 FILLER_0_34_3
*1212 FILLER_0_34_309
*1213 FILLER_0_34_339
*1214 FILLER_0_34_41
*1215 FILLER_0_34_53
*1216 FILLER_0_34_65
*1217 FILLER_0_34_77
*1218 FILLER_0_34_83
*1219 FILLER_0_34_85
*1220 FILLER_0_34_97
*1221 FILLER_0_35_105
*1222 FILLER_0_35_111
*1223 FILLER_0_35_133
*1224 FILLER_0_35_15
*1225 FILLER_0_35_162
*1226 FILLER_0_35_169
*1227 FILLER_0_35_196
*1228 FILLER_0_35_222
*1229 FILLER_0_35_245
*1230 FILLER_0_35_251
*1231 FILLER_0_35_267
*1232 FILLER_0_35_27
*1233 FILLER_0_35_273
*1234 FILLER_0_35_3
*1235 FILLER_0_35_302
*1236 FILLER_0_35_314
*1237 FILLER_0_35_343
*1238 FILLER_0_35_39
*1239 FILLER_0_35_51
*1240 FILLER_0_35_55
*1241 FILLER_0_35_57
*1242 FILLER_0_35_69
*1243 FILLER_0_35_81
*1244 FILLER_0_35_93
*1245 FILLER_0_36_109
*1246 FILLER_0_36_132
*1247 FILLER_0_36_141
*1248 FILLER_0_36_15
*1249 FILLER_0_36_27
*1250 FILLER_0_36_29
*1251 FILLER_0_36_3
*1252 FILLER_0_36_304
*1253 FILLER_0_36_349
*1254 FILLER_0_36_41
*1255 FILLER_0_36_53
*1256 FILLER_0_36_65
*1257 FILLER_0_36_77
*1258 FILLER_0_36_83
*1259 FILLER_0_36_85
*1260 FILLER_0_36_97
*1261 FILLER_0_37_105
*1262 FILLER_0_37_111
*1263 FILLER_0_37_113
*1264 FILLER_0_37_125
*1265 FILLER_0_37_15
*1266 FILLER_0_37_153
*1267 FILLER_0_37_165
*1268 FILLER_0_37_169
*1269 FILLER_0_37_178
*1270 FILLER_0_37_194
*1271 FILLER_0_37_221
*1272 FILLER_0_37_245
*1273 FILLER_0_37_27
*1274 FILLER_0_37_271
*1275 FILLER_0_37_281
*1276 FILLER_0_37_3
*1277 FILLER_0_37_311
*1278 FILLER_0_37_315
*1279 FILLER_0_37_346
*1280 FILLER_0_37_350
*1281 FILLER_0_37_39
*1282 FILLER_0_37_51
*1283 FILLER_0_37_55
*1284 FILLER_0_37_57
*1285 FILLER_0_37_69
*1286 FILLER_0_37_81
*1287 FILLER_0_37_93
*1288 FILLER_0_38_102
*1289 FILLER_0_38_106
*1290 FILLER_0_38_110
*1291 FILLER_0_38_113
*1292 FILLER_0_38_118
*1293 FILLER_0_38_122
*1294 FILLER_0_38_126
*1295 FILLER_0_38_130
*1296 FILLER_0_38_134
*1297 FILLER_0_38_14
*1298 FILLER_0_38_144
*1299 FILLER_0_38_150
*1300 FILLER_0_38_154
*1301 FILLER_0_38_158
*1302 FILLER_0_38_162
*1303 FILLER_0_38_166
*1304 FILLER_0_38_18
*1305 FILLER_0_38_189
*1306 FILLER_0_38_195
*1307 FILLER_0_38_197
*1308 FILLER_0_38_209
*1309 FILLER_0_38_22
*1310 FILLER_0_38_223
*1311 FILLER_0_38_225
*1312 FILLER_0_38_237
*1313 FILLER_0_38_249
*1314 FILLER_0_38_253
*1315 FILLER_0_38_265
*1316 FILLER_0_38_277
*1317 FILLER_0_38_281
*1318 FILLER_0_38_285
*1319 FILLER_0_38_289
*1320 FILLER_0_38_3
*1321 FILLER_0_38_301
*1322 FILLER_0_38_309
*1323 FILLER_0_38_32
*1324 FILLER_0_38_337
*1325 FILLER_0_38_346
*1326 FILLER_0_38_350
*1327 FILLER_0_38_38
*1328 FILLER_0_38_42
*1329 FILLER_0_38_46
*1330 FILLER_0_38_50
*1331 FILLER_0_38_54
*1332 FILLER_0_38_57
*1333 FILLER_0_38_62
*1334 FILLER_0_38_66
*1335 FILLER_0_38_70
*1336 FILLER_0_38_74
*1337 FILLER_0_38_78
*1338 FILLER_0_38_88
*1339 FILLER_0_38_94
*1340 FILLER_0_38_98
*1341 FILLER_0_3_105
*1342 FILLER_0_3_111
*1343 FILLER_0_3_113
*1344 FILLER_0_3_125
*1345 FILLER_0_3_137
*1346 FILLER_0_3_149
*1347 FILLER_0_3_15
*1348 FILLER_0_3_161
*1349 FILLER_0_3_167
*1350 FILLER_0_3_169
*1351 FILLER_0_3_181
*1352 FILLER_0_3_193
*1353 FILLER_0_3_205
*1354 FILLER_0_3_217
*1355 FILLER_0_3_223
*1356 FILLER_0_3_225
*1357 FILLER_0_3_237
*1358 FILLER_0_3_249
*1359 FILLER_0_3_261
*1360 FILLER_0_3_27
*1361 FILLER_0_3_273
*1362 FILLER_0_3_279
*1363 FILLER_0_3_281
*1364 FILLER_0_3_293
*1365 FILLER_0_3_3
*1366 FILLER_0_3_305
*1367 FILLER_0_3_317
*1368 FILLER_0_3_329
*1369 FILLER_0_3_335
*1370 FILLER_0_3_337
*1371 FILLER_0_3_349
*1372 FILLER_0_3_39
*1373 FILLER_0_3_51
*1374 FILLER_0_3_55
*1375 FILLER_0_3_57
*1376 FILLER_0_3_69
*1377 FILLER_0_3_81
*1378 FILLER_0_3_93
*1379 FILLER_0_4_109
*1380 FILLER_0_4_121
*1381 FILLER_0_4_133
*1382 FILLER_0_4_139
*1383 FILLER_0_4_141
*1384 FILLER_0_4_15
*1385 FILLER_0_4_153
*1386 FILLER_0_4_165
*1387 FILLER_0_4_177
*1388 FILLER_0_4_189
*1389 FILLER_0_4_195
*1390 FILLER_0_4_197
*1391 FILLER_0_4_209
*1392 FILLER_0_4_221
*1393 FILLER_0_4_233
*1394 FILLER_0_4_245
*1395 FILLER_0_4_251
*1396 FILLER_0_4_253
*1397 FILLER_0_4_265
*1398 FILLER_0_4_27
*1399 FILLER_0_4_277
*1400 FILLER_0_4_289
*1401 FILLER_0_4_29
*1402 FILLER_0_4_3
*1403 FILLER_0_4_301
*1404 FILLER_0_4_307
*1405 FILLER_0_4_309
*1406 FILLER_0_4_321
*1407 FILLER_0_4_333
*1408 FILLER_0_4_345
*1409 FILLER_0_4_41
*1410 FILLER_0_4_53
*1411 FILLER_0_4_65
*1412 FILLER_0_4_77
*1413 FILLER_0_4_83
*1414 FILLER_0_4_85
*1415 FILLER_0_4_97
*1416 FILLER_0_5_105
*1417 FILLER_0_5_111
*1418 FILLER_0_5_113
*1419 FILLER_0_5_125
*1420 FILLER_0_5_137
*1421 FILLER_0_5_149
*1422 FILLER_0_5_15
*1423 FILLER_0_5_161
*1424 FILLER_0_5_167
*1425 FILLER_0_5_169
*1426 FILLER_0_5_181
*1427 FILLER_0_5_193
*1428 FILLER_0_5_205
*1429 FILLER_0_5_217
*1430 FILLER_0_5_223
*1431 FILLER_0_5_225
*1432 FILLER_0_5_237
*1433 FILLER_0_5_249
*1434 FILLER_0_5_261
*1435 FILLER_0_5_27
*1436 FILLER_0_5_273
*1437 FILLER_0_5_279
*1438 FILLER_0_5_281
*1439 FILLER_0_5_293
*1440 FILLER_0_5_3
*1441 FILLER_0_5_305
*1442 FILLER_0_5_317
*1443 FILLER_0_5_329
*1444 FILLER_0_5_335
*1445 FILLER_0_5_337
*1446 FILLER_0_5_349
*1447 FILLER_0_5_39
*1448 FILLER_0_5_51
*1449 FILLER_0_5_55
*1450 FILLER_0_5_57
*1451 FILLER_0_5_69
*1452 FILLER_0_5_81
*1453 FILLER_0_5_93
*1454 FILLER_0_6_109
*1455 FILLER_0_6_121
*1456 FILLER_0_6_133
*1457 FILLER_0_6_139
*1458 FILLER_0_6_141
*1459 FILLER_0_6_15
*1460 FILLER_0_6_153
*1461 FILLER_0_6_165
*1462 FILLER_0_6_177
*1463 FILLER_0_6_189
*1464 FILLER_0_6_195
*1465 FILLER_0_6_197
*1466 FILLER_0_6_209
*1467 FILLER_0_6_221
*1468 FILLER_0_6_233
*1469 FILLER_0_6_245
*1470 FILLER_0_6_251
*1471 FILLER_0_6_253
*1472 FILLER_0_6_265
*1473 FILLER_0_6_27
*1474 FILLER_0_6_277
*1475 FILLER_0_6_289
*1476 FILLER_0_6_29
*1477 FILLER_0_6_3
*1478 FILLER_0_6_301
*1479 FILLER_0_6_307
*1480 FILLER_0_6_309
*1481 FILLER_0_6_321
*1482 FILLER_0_6_333
*1483 FILLER_0_6_345
*1484 FILLER_0_6_41
*1485 FILLER_0_6_53
*1486 FILLER_0_6_65
*1487 FILLER_0_6_77
*1488 FILLER_0_6_83
*1489 FILLER_0_6_85
*1490 FILLER_0_6_97
*1491 FILLER_0_7_105
*1492 FILLER_0_7_111
*1493 FILLER_0_7_113
*1494 FILLER_0_7_125
*1495 FILLER_0_7_137
*1496 FILLER_0_7_149
*1497 FILLER_0_7_15
*1498 FILLER_0_7_161
*1499 FILLER_0_7_167
*1500 FILLER_0_7_169
*1501 FILLER_0_7_181
*1502 FILLER_0_7_193
*1503 FILLER_0_7_205
*1504 FILLER_0_7_217
*1505 FILLER_0_7_223
*1506 FILLER_0_7_225
*1507 FILLER_0_7_237
*1508 FILLER_0_7_249
*1509 FILLER_0_7_261
*1510 FILLER_0_7_27
*1511 FILLER_0_7_273
*1512 FILLER_0_7_279
*1513 FILLER_0_7_281
*1514 FILLER_0_7_293
*1515 FILLER_0_7_3
*1516 FILLER_0_7_305
*1517 FILLER_0_7_317
*1518 FILLER_0_7_329
*1519 FILLER_0_7_335
*1520 FILLER_0_7_337
*1521 FILLER_0_7_349
*1522 FILLER_0_7_39
*1523 FILLER_0_7_51
*1524 FILLER_0_7_55