*SPEF "ieee 1481-1999"
*DESIGN "tt_um_wokwi_377426511818305537"
*DATE "11:11:11 Fri 11 11, 1111"
*VENDOR "OpenRCX"
*PROGRAM "Parallel Extraction"
*VERSION "1.0"
*DESIGN_FLOW "NAME_SCOPE LOCAL" "PIN_CAP NONE"
*DIVIDER /
*DELIMITER :
*BUS_DELIMITER []
*T_UNIT 1 NS
*C_UNIT 1 PF
*R_UNIT 1 OHM
*L_UNIT 1 HENRY

*NAME_MAP
*3 clk
*4 ena
*5 rst_n
*6 ui_in[0]
*7 ui_in[1]
*8 ui_in[2]
*9 ui_in[3]
*10 ui_in[4]
*11 ui_in[5]
*12 ui_in[6]
*13 ui_in[7]
*14 uio_in[0]
*15 uio_in[1]
*16 uio_in[2]
*17 uio_in[3]
*18 uio_in[4]
*19 uio_in[5]
*20 uio_in[6]
*21 uio_in[7]
*22 net20
*23 net21
*24 net22
*25 net23
*26 net15
*27 net16
*28 net17
*29 net18
*30 uio_out[0]
*31 uio_out[1]
*32 uio_out[2]
*33 uio_out[3]
*34 uio_out[4]
*35 uio_out[5]
*36 uio_out[6]
*37 net14
*38 uo_out[0]
*39 uo_out[1]
*40 uo_out[2]
*41 uo_out[3]
*42 uo_out[4]
*43 uo_out[5]
*44 uo_out[6]
*45 uo_out[7]
*46 _000_
*47 _001_
*48 _002_
*49 _003_
*50 _004_
*51 _005_
*52 _006_
*53 _007_
*54 _008_
*55 _009_
*56 _010_
*57 _011_
*58 _012_
*59 _013_
*60 _014_
*61 _015_
*62 _016_
*63 _017_
*64 _018_
*65 _019_
*66 _020_
*67 _021_
*68 _022_
*69 _023_
*70 _024_
*71 _025_
*72 _026_
*73 _027_
*74 _028_
*75 _029_
*76 _030_
*77 _031_
*78 _032_
*79 _033_
*80 _034_
*81 _035_
*82 _036_
*83 _037_
*84 _038_
*85 _039_
*86 _040_
*87 _041_
*88 _042_
*89 _043_
*90 _044_
*91 _045_
*92 _046_
*93 _047_
*94 _048_
*95 _049_
*96 _050_
*97 _051_
*98 _052_
*99 _053_
*100 _054_
*101 _055_
*102 _056_
*103 _057_
*104 _058_
*105 _059_
*106 _060_
*107 _061_
*108 _062_
*109 _063_
*110 _064_
*111 _065_
*112 _066_
*113 _067_
*114 _068_
*115 _069_
*116 _070_
*117 _071_
*118 _072_
*119 _073_
*120 _074_
*121 _075_
*122 _076_
*123 _077_
*124 _078_
*125 _079_
*126 _080_
*127 _081_
*128 _082_
*129 _083_
*130 _084_
*131 _085_
*132 _086_
*133 _087_
*134 _088_
*135 _089_
*136 _090_
*137 _091_
*138 _092_
*139 _093_
*140 _094_
*141 _095_
*142 _096_
*143 _097_
*144 _098_
*145 _099_
*146 _100_
*147 _101_
*148 _102_
*149 _103_
*150 _104_
*151 _105_
*152 _106_
*153 _107_
*154 _108_
*155 _109_
*156 _110_
*157 _111_
*158 _112_
*159 _113_
*160 _114_
*161 _115_
*162 _116_
*163 _117_
*164 _118_
*165 _119_
*166 _120_
*167 _121_
*168 _122_
*169 _123_
*170 _124_
*171 _125_
*172 _126_
*173 _127_
*174 _128_
*175 _129_
*176 _130_
*177 _131_
*178 _132_
*179 _133_
*180 _134_
*181 _135_
*182 _136_
*183 _137_
*184 _138_
*185 _139_
*186 _140_
*187 _141_
*188 _142_
*189 _143_
*190 _144_
*191 _145_
*192 _146_
*193 _147_
*194 _148_
*195 _149_
*196 _150_
*197 _151_
*198 _152_
*199 _153_
*200 _154_
*201 _155_
*202 _156_
*203 _157_
*204 _158_
*205 _159_
*206 _160_
*207 _161_
*208 _162_
*209 _163_
*210 _164_
*211 _165_
*212 _166_
*213 _167_
*214 _168_
*215 _169_
*216 _170_
*217 _171_
*218 _172_
*219 _173_
*220 _174_
*221 _175_
*222 _176_
*223 _177_
*224 _178_
*225 _179_
*226 _180_
*227 _181_
*228 _182_
*229 _183_
*230 _184_
*231 _185_
*232 _186_
*233 _187_
*234 _188_
*235 _189_
*236 _190_
*237 _191_
*238 _192_
*239 _193_
*240 _194_
*241 _195_
*242 _196_
*243 _197_
*244 _198_
*245 _199_
*246 _200_
*247 _201_
*248 _202_
*249 _203_
*250 _204_
*251 _205_
*252 _206_
*253 _207_
*254 _208_
*255 _209_
*256 _210_
*257 _211_
*258 _212_
*259 _213_
*260 _214_
*261 _215_
*262 _216_
*263 _217_
*264 _218_
*265 _219_
*266 _220_
*267 _221_
*268 _222_
*269 and1\.a
*270 and10\.a
*271 and10\.b
*272 and11\.a
*273 and11\.b
*274 and12\.a
*275 and12\.b
*276 and13\.a
*277 and13\.b
*278 and14\.a
*279 and14\.b
*280 and15\.a
*281 and17\.a
*282 and18\.a
*283 and19\.a
*284 and20\.a
*285 and22\.a
*286 and23\.a
*287 and24\.a
*288 and25\.a
*289 and27\.a
*290 and28\.a
*291 and29\.a
*292 and30\.a
*293 and32\.a
*294 and33\.a
*295 and34\.a
*296 and37\.out
*297 and38\.a
*298 and38\.out
*299 and39\.a
*300 and41\.a
*301 and42\.a
*302 and43\.a
*303 and44\.a
*304 and46\.a
*305 and47\.a
*306 and48\.a
*307 and49\.a
*308 and51\.a
*309 and52\.a
*310 and53\.a
*311 and54\.a
*312 and56\.a
*313 and57\.a
*314 and58\.a
*315 and61\.out
*316 and62\.a
*317 and62\.out
*318 and63\.a
*319 and64\.a
*320 and65\.a
*321 and66\.a
*322 and67\.a
*323 and68\.a
*324 and68\.out
*325 and69\.a
*326 and8\.a
*327 and8\.b
*328 and9\.a
*329 and9\.b
*330 clknet_0_flop101\.clk
*331 clknet_0_flop102\.clk
*332 clknet_0_flop104\.clk
*333 clknet_0_flop108\.clk
*334 clknet_1_0__leaf_flop101\.clk
*335 clknet_1_0__leaf_flop102\.clk
*336 clknet_1_0__leaf_flop104\.clk
*337 clknet_1_0__leaf_flop108\.clk
*338 clknet_1_1__leaf_flop101\.clk
*339 clknet_1_1__leaf_flop102\.clk
*340 clknet_1_1__leaf_flop104\.clk
*341 clknet_1_1__leaf_flop108\.clk
*342 flop1\.clk
*343 flop1\.d
*344 flop1\.q
*345 flop10\.clk
*346 flop10\.d
*347 flop10\.q
*348 flop100\.clk
*349 flop100\.q
*350 flop101\.clk
*351 flop101\.d
*352 flop101\.q
*353 flop102\.clk
*354 flop102\.d
*355 flop102\.q
*356 flop103\.d
*357 flop103\.q
*358 flop104\.clk
*359 flop104\.d
*360 flop104\.q
*361 flop105\.d
*362 flop105\.q
*363 flop106\.d
*364 flop106\.q
*365 flop107\.d
*366 flop107\.q
*367 flop108\.clk
*368 flop108\.q
*369 flop11\.q
*370 flop17\.clk
*371 flop17\.d
*372 flop17\.q
*373 flop18\.q
*374 flop19\.q
*375 flop2\.q
*376 flop20\.q
*377 flop21\.q
*378 flop22\.q
*379 flop23\.q
*380 flop24\.q
*381 flop25\.clk
*382 flop25\.d
*383 flop3\.q
*384 flop33\.clk
*385 flop33\.d
*386 flop4\.q
*387 flop40\.d
*388 flop5\.q
*389 flop57\.clk
*390 flop57\.d
*391 flop57\.q
*392 flop58\.q
*393 flop59\.q
*394 flop6\.q
*395 flop60\.q
*396 flop61\.q
*397 flop62\.q
*398 flop63\.q
*399 flop64\.q
*400 flop67\.q
*401 flop7\.q
*402 flop75\.q
*403 flop78\.q
*404 flop8\.q
*405 flop85\.d
*406 flop86\.notq
*407 flop86\.q
*408 flop87\.clk
*409 flop87\.q
*410 flop88\.q
*411 flop89\.q
*412 flop9\.d
*413 flop91\.d
*414 flop92\.d
*415 flop93\.q
*416 flop94\.d
*417 flop95\.d
*418 flop96\.d
*419 flop97\.d
*420 flop98\.d
*421 flop99\.q
*422 net1
*423 net10
*424 net11
*425 net12
*426 net13
*427 net19
*428 net2
*429 net24
*430 net25
*431 net26
*432 net3
*433 net4
*434 net5
*435 net6
*436 net7
*437 net8
*438 net9
*439 xor10\.out
*440 xor11\.out
*441 xor8\.out
*442 xor9\.out
*443 FILLER_0_0_109
*444 FILLER_0_0_113
*445 FILLER_0_0_125
*446 FILLER_0_0_137
*447 FILLER_0_0_141
*448 FILLER_0_0_15
*449 FILLER_0_0_153
*450 FILLER_0_0_165
*451 FILLER_0_0_169
*452 FILLER_0_0_181
*453 FILLER_0_0_193
*454 FILLER_0_0_197
*455 FILLER_0_0_209
*456 FILLER_0_0_221
*457 FILLER_0_0_225
*458 FILLER_0_0_237
*459 FILLER_0_0_249
*460 FILLER_0_0_253
*461 FILLER_0_0_265
*462 FILLER_0_0_27
*463 FILLER_0_0_277
*464 FILLER_0_0_281
*465 FILLER_0_0_29
*466 FILLER_0_0_293
*467 FILLER_0_0_3
*468 FILLER_0_0_305
*469 FILLER_0_0_309
*470 FILLER_0_0_321
*471 FILLER_0_0_333
*472 FILLER_0_0_337
*473 FILLER_0_0_349
*474 FILLER_0_0_41
*475 FILLER_0_0_53
*476 FILLER_0_0_57
*477 FILLER_0_0_69
*478 FILLER_0_0_81
*479 FILLER_0_0_85
*480 FILLER_0_0_97
*481 FILLER_0_10_109
*482 FILLER_0_10_121
*483 FILLER_0_10_133
*484 FILLER_0_10_139
*485 FILLER_0_10_141
*486 FILLER_0_10_15
*487 FILLER_0_10_153
*488 FILLER_0_10_165
*489 FILLER_0_10_177
*490 FILLER_0_10_189
*491 FILLER_0_10_195
*492 FILLER_0_10_197
*493 FILLER_0_10_209
*494 FILLER_0_10_221
*495 FILLER_0_10_233
*496 FILLER_0_10_245
*497 FILLER_0_10_251
*498 FILLER_0_10_253
*499 FILLER_0_10_265
*500 FILLER_0_10_27
*501 FILLER_0_10_277
*502 FILLER_0_10_289
*503 FILLER_0_10_29
*504 FILLER_0_10_3
*505 FILLER_0_10_301
*506 FILLER_0_10_307
*507 FILLER_0_10_309
*508 FILLER_0_10_321
*509 FILLER_0_10_333
*510 FILLER_0_10_345
*511 FILLER_0_10_41
*512 FILLER_0_10_53
*513 FILLER_0_10_65
*514 FILLER_0_10_77
*515 FILLER_0_10_83
*516 FILLER_0_10_85
*517 FILLER_0_10_97
*518 FILLER_0_11_105
*519 FILLER_0_11_111
*520 FILLER_0_11_113
*521 FILLER_0_11_125
*522 FILLER_0_11_137
*523 FILLER_0_11_149
*524 FILLER_0_11_15
*525 FILLER_0_11_161
*526 FILLER_0_11_167
*527 FILLER_0_11_169
*528 FILLER_0_11_181
*529 FILLER_0_11_193
*530 FILLER_0_11_205
*531 FILLER_0_11_217
*532 FILLER_0_11_223
*533 FILLER_0_11_225
*534 FILLER_0_11_237
*535 FILLER_0_11_249
*536 FILLER_0_11_261
*537 FILLER_0_11_27
*538 FILLER_0_11_273
*539 FILLER_0_11_279
*540 FILLER_0_11_281
*541 FILLER_0_11_293
*542 FILLER_0_11_3
*543 FILLER_0_11_305
*544 FILLER_0_11_317
*545 FILLER_0_11_329
*546 FILLER_0_11_335
*547 FILLER_0_11_337
*548 FILLER_0_11_349
*549 FILLER_0_11_39
*550 FILLER_0_11_51
*551 FILLER_0_11_55
*552 FILLER_0_11_57
*553 FILLER_0_11_69
*554 FILLER_0_11_81
*555 FILLER_0_11_93
*556 FILLER_0_12_109
*557 FILLER_0_12_121
*558 FILLER_0_12_133
*559 FILLER_0_12_139
*560 FILLER_0_12_141
*561 FILLER_0_12_15
*562 FILLER_0_12_153
*563 FILLER_0_12_165
*564 FILLER_0_12_177
*565 FILLER_0_12_189
*566 FILLER_0_12_195
*567 FILLER_0_12_197
*568 FILLER_0_12_209
*569 FILLER_0_12_221
*570 FILLER_0_12_233
*571 FILLER_0_12_245
*572 FILLER_0_12_251
*573 FILLER_0_12_253
*574 FILLER_0_12_265
*575 FILLER_0_12_27
*576 FILLER_0_12_277
*577 FILLER_0_12_289
*578 FILLER_0_12_29
*579 FILLER_0_12_3
*580 FILLER_0_12_301
*581 FILLER_0_12_307
*582 FILLER_0_12_309
*583 FILLER_0_12_321
*584 FILLER_0_12_333
*585 FILLER_0_12_345
*586 FILLER_0_12_41
*587 FILLER_0_12_53
*588 FILLER_0_12_65
*589 FILLER_0_12_77
*590 FILLER_0_12_83
*591 FILLER_0_12_85
*592 FILLER_0_12_97
*593 FILLER_0_13_105
*594 FILLER_0_13_111
*595 FILLER_0_13_113
*596 FILLER_0_13_125
*597 FILLER_0_13_137
*598 FILLER_0_13_149
*599 FILLER_0_13_15
*600 FILLER_0_13_161
*601 FILLER_0_13_167
*602 FILLER_0_13_169
*603 FILLER_0_13_181
*604 FILLER_0_13_193
*605 FILLER_0_13_205
*606 FILLER_0_13_217
*607 FILLER_0_13_223
*608 FILLER_0_13_225
*609 FILLER_0_13_237
*610 FILLER_0_13_249
*611 FILLER_0_13_261
*612 FILLER_0_13_27
*613 FILLER_0_13_273
*614 FILLER_0_13_279
*615 FILLER_0_13_281
*616 FILLER_0_13_293
*617 FILLER_0_13_3
*618 FILLER_0_13_305
*619 FILLER_0_13_317
*620 FILLER_0_13_329
*621 FILLER_0_13_335
*622 FILLER_0_13_337
*623 FILLER_0_13_349
*624 FILLER_0_13_39
*625 FILLER_0_13_51
*626 FILLER_0_13_55
*627 FILLER_0_13_57
*628 FILLER_0_13_69
*629 FILLER_0_13_81
*630 FILLER_0_13_93
*631 FILLER_0_14_109
*632 FILLER_0_14_121
*633 FILLER_0_14_133
*634 FILLER_0_14_139
*635 FILLER_0_14_141
*636 FILLER_0_14_15
*637 FILLER_0_14_153
*638 FILLER_0_14_165
*639 FILLER_0_14_177
*640 FILLER_0_14_189
*641 FILLER_0_14_195
*642 FILLER_0_14_197
*643 FILLER_0_14_209
*644 FILLER_0_14_221
*645 FILLER_0_14_233
*646 FILLER_0_14_245
*647 FILLER_0_14_251
*648 FILLER_0_14_253
*649 FILLER_0_14_265
*650 FILLER_0_14_27
*651 FILLER_0_14_277
*652 FILLER_0_14_289
*653 FILLER_0_14_29
*654 FILLER_0_14_3
*655 FILLER_0_14_301
*656 FILLER_0_14_307
*657 FILLER_0_14_309
*658 FILLER_0_14_321
*659 FILLER_0_14_333
*660 FILLER_0_14_345
*661 FILLER_0_14_41
*662 FILLER_0_14_53
*663 FILLER_0_14_65
*664 FILLER_0_14_77
*665 FILLER_0_14_83
*666 FILLER_0_14_85
*667 FILLER_0_14_97
*668 FILLER_0_15_105
*669 FILLER_0_15_111
*670 FILLER_0_15_113
*671 FILLER_0_15_125
*672 FILLER_0_15_137
*673 FILLER_0_15_149
*674 FILLER_0_15_15
*675 FILLER_0_15_161
*676 FILLER_0_15_167
*677 FILLER_0_15_169
*678 FILLER_0_15_181
*679 FILLER_0_15_193
*680 FILLER_0_15_205
*681 FILLER_0_15_217
*682 FILLER_0_15_223
*683 FILLER_0_15_225
*684 FILLER_0_15_237
*685 FILLER_0_15_249
*686 FILLER_0_15_261
*687 FILLER_0_15_27
*688 FILLER_0_15_273
*689 FILLER_0_15_279
*690 FILLER_0_15_281
*691 FILLER_0_15_293
*692 FILLER_0_15_3
*693 FILLER_0_15_305
*694 FILLER_0_15_317
*695 FILLER_0_15_329
*696 FILLER_0_15_335
*697 FILLER_0_15_337
*698 FILLER_0_15_349
*699 FILLER_0_15_39
*700 FILLER_0_15_51
*701 FILLER_0_15_55
*702 FILLER_0_15_57
*703 FILLER_0_15_69
*704 FILLER_0_15_81
*705 FILLER_0_15_93
*706 FILLER_0_16_109
*707 FILLER_0_16_121
*708 FILLER_0_16_133
*709 FILLER_0_16_139
*710 FILLER_0_16_141
*711 FILLER_0_16_15
*712 FILLER_0_16_153
*713 FILLER_0_16_165
*714 FILLER_0_16_177
*715 FILLER_0_16_189
*716 FILLER_0_16_195
*717 FILLER_0_16_197
*718 FILLER_0_16_209
*719 FILLER_0_16_221
*720 FILLER_0_16_233
*721 FILLER_0_16_245
*722 FILLER_0_16_251
*723 FILLER_0_16_253
*724 FILLER_0_16_265
*725 FILLER_0_16_27
*726 FILLER_0_16_277
*727 FILLER_0_16_289
*728 FILLER_0_16_29
*729 FILLER_0_16_3
*730 FILLER_0_16_301
*731 FILLER_0_16_307
*732 FILLER_0_16_309
*733 FILLER_0_16_321
*734 FILLER_0_16_333
*735 FILLER_0_16_345
*736 FILLER_0_16_41
*737 FILLER_0_16_53
*738 FILLER_0_16_65
*739 FILLER_0_16_77
*740 FILLER_0_16_83
*741 FILLER_0_16_85
*742 FILLER_0_16_97
*743 FILLER_0_17_105
*744 FILLER_0_17_111
*745 FILLER_0_17_113
*746 FILLER_0_17_125
*747 FILLER_0_17_137
*748 FILLER_0_17_149
*749 FILLER_0_17_15
*750 FILLER_0_17_161
*751 FILLER_0_17_167
*752 FILLER_0_17_169
*753 FILLER_0_17_181
*754 FILLER_0_17_193
*755 FILLER_0_17_205
*756 FILLER_0_17_217
*757 FILLER_0_17_223
*758 FILLER_0_17_225
*759 FILLER_0_17_237
*760 FILLER_0_17_249
*761 FILLER_0_17_261
*762 FILLER_0_17_27
*763 FILLER_0_17_273
*764 FILLER_0_17_279
*765 FILLER_0_17_281
*766 FILLER_0_17_293
*767 FILLER_0_17_3
*768 FILLER_0_17_305
*769 FILLER_0_17_317
*770 FILLER_0_17_329
*771 FILLER_0_17_335
*772 FILLER_0_17_337
*773 FILLER_0_17_349
*774 FILLER_0_17_39
*775 FILLER_0_17_51
*776 FILLER_0_17_55
*777 FILLER_0_17_57
*778 FILLER_0_17_69
*779 FILLER_0_17_81
*780 FILLER_0_17_93
*781 FILLER_0_18_121
*782 FILLER_0_18_133
*783 FILLER_0_18_139
*784 FILLER_0_18_141
*785 FILLER_0_18_15
*786 FILLER_0_18_153
*787 FILLER_0_18_165
*788 FILLER_0_18_177
*789 FILLER_0_18_189
*790 FILLER_0_18_195
*791 FILLER_0_18_197
*792 FILLER_0_18_209
*793 FILLER_0_18_221
*794 FILLER_0_18_233
*795 FILLER_0_18_245
*796 FILLER_0_18_251
*797 FILLER_0_18_253
*798 FILLER_0_18_265
*799 FILLER_0_18_27
*800 FILLER_0_18_277
*801 FILLER_0_18_289
*802 FILLER_0_18_29
*803 FILLER_0_18_3
*804 FILLER_0_18_301
*805 FILLER_0_18_307
*806 FILLER_0_18_309
*807 FILLER_0_18_321
*808 FILLER_0_18_333
*809 FILLER_0_18_345
*810 FILLER_0_18_41
*811 FILLER_0_18_53
*812 FILLER_0_18_65
*813 FILLER_0_18_77
*814 FILLER_0_18_83
*815 FILLER_0_18_85
*816 FILLER_0_18_97
*817 FILLER_0_19_108
*818 FILLER_0_19_122
*819 FILLER_0_19_134
*820 FILLER_0_19_146
*821 FILLER_0_19_15
*822 FILLER_0_19_158
*823 FILLER_0_19_166
*824 FILLER_0_19_169
*825 FILLER_0_19_181
*826 FILLER_0_19_193
*827 FILLER_0_19_205
*828 FILLER_0_19_217
*829 FILLER_0_19_223
*830 FILLER_0_19_225
*831 FILLER_0_19_237
*832 FILLER_0_19_249
*833 FILLER_0_19_261
*834 FILLER_0_19_27
*835 FILLER_0_19_273
*836 FILLER_0_19_279
*837 FILLER_0_19_281
*838 FILLER_0_19_293
*839 FILLER_0_19_3
*840 FILLER_0_19_305
*841 FILLER_0_19_317
*842 FILLER_0_19_329
*843 FILLER_0_19_335
*844 FILLER_0_19_337
*845 FILLER_0_19_349
*846 FILLER_0_19_39
*847 FILLER_0_19_51
*848 FILLER_0_19_55
*849 FILLER_0_19_57
*850 FILLER_0_19_77
*851 FILLER_0_1_105
*852 FILLER_0_1_111
*853 FILLER_0_1_113
*854 FILLER_0_1_125
*855 FILLER_0_1_137
*856 FILLER_0_1_149
*857 FILLER_0_1_15
*858 FILLER_0_1_161
*859 FILLER_0_1_167
*860 FILLER_0_1_169
*861 FILLER_0_1_181
*862 FILLER_0_1_193
*863 FILLER_0_1_205
*864 FILLER_0_1_217
*865 FILLER_0_1_223
*866 FILLER_0_1_225
*867 FILLER_0_1_237
*868 FILLER_0_1_249
*869 FILLER_0_1_261
*870 FILLER_0_1_27
*871 FILLER_0_1_273
*872 FILLER_0_1_279
*873 FILLER_0_1_281
*874 FILLER_0_1_293
*875 FILLER_0_1_3
*876 FILLER_0_1_305
*877 FILLER_0_1_317
*878 FILLER_0_1_329
*879 FILLER_0_1_335
*880 FILLER_0_1_337
*881 FILLER_0_1_349
*882 FILLER_0_1_39
*883 FILLER_0_1_51
*884 FILLER_0_1_55
*885 FILLER_0_1_57
*886 FILLER_0_1_69
*887 FILLER_0_1_81
*888 FILLER_0_1_93
*889 FILLER_0_20_132
*890 FILLER_0_20_141
*891 FILLER_0_20_15
*892 FILLER_0_20_153
*893 FILLER_0_20_165
*894 FILLER_0_20_177
*895 FILLER_0_20_189
*896 FILLER_0_20_195
*897 FILLER_0_20_197
*898 FILLER_0_20_209
*899 FILLER_0_20_221
*900 FILLER_0_20_233
*901 FILLER_0_20_245
*902 FILLER_0_20_251
*903 FILLER_0_20_253
*904 FILLER_0_20_265
*905 FILLER_0_20_27
*906 FILLER_0_20_277
*907 FILLER_0_20_289
*908 FILLER_0_20_29
*909 FILLER_0_20_3
*910 FILLER_0_20_301
*911 FILLER_0_20_307
*912 FILLER_0_20_309
*913 FILLER_0_20_321
*914 FILLER_0_20_333
*915 FILLER_0_20_345
*916 FILLER_0_20_41
*917 FILLER_0_20_53
*918 FILLER_0_20_61
*919 FILLER_0_20_85
*920 FILLER_0_20_91
*921 FILLER_0_20_95
*922 FILLER_0_21_101
*923 FILLER_0_21_109
*924 FILLER_0_21_116
*925 FILLER_0_21_123
*926 FILLER_0_21_135
*927 FILLER_0_21_147
*928 FILLER_0_21_15
*929 FILLER_0_21_159
*930 FILLER_0_21_167
*931 FILLER_0_21_169
*932 FILLER_0_21_181
*933 FILLER_0_21_193
*934 FILLER_0_21_205
*935 FILLER_0_21_217
*936 FILLER_0_21_223
*937 FILLER_0_21_225
*938 FILLER_0_21_237
*939 FILLER_0_21_241
*940 FILLER_0_21_262
*941 FILLER_0_21_27
*942 FILLER_0_21_274
*943 FILLER_0_21_281
*944 FILLER_0_21_293
*945 FILLER_0_21_3
*946 FILLER_0_21_305
*947 FILLER_0_21_317
*948 FILLER_0_21_329
*949 FILLER_0_21_335
*950 FILLER_0_21_337
*951 FILLER_0_21_349
*952 FILLER_0_21_39
*953 FILLER_0_21_51
*954 FILLER_0_21_55
*955 FILLER_0_21_80
*956 FILLER_0_21_89
*957 FILLER_0_22_103
*958 FILLER_0_22_109
*959 FILLER_0_22_123
*960 FILLER_0_22_133
*961 FILLER_0_22_139
*962 FILLER_0_22_141
*963 FILLER_0_22_15
*964 FILLER_0_22_153
*965 FILLER_0_22_174
*966 FILLER_0_22_186
*967 FILLER_0_22_194
*968 FILLER_0_22_197
*969 FILLER_0_22_209
*970 FILLER_0_22_235
*971 FILLER_0_22_245
*972 FILLER_0_22_251
*973 FILLER_0_22_253
*974 FILLER_0_22_265
*975 FILLER_0_22_27
*976 FILLER_0_22_289
*977 FILLER_0_22_29
*978 FILLER_0_22_3
*979 FILLER_0_22_301
*980 FILLER_0_22_307
*981 FILLER_0_22_309
*982 FILLER_0_22_321
*983 FILLER_0_22_333
*984 FILLER_0_22_345
*985 FILLER_0_22_41
*986 FILLER_0_22_53
*987 FILLER_0_22_60
*988 FILLER_0_22_66
*989 FILLER_0_22_73
*990 FILLER_0_22_81
*991 FILLER_0_22_85
*992 FILLER_0_22_97
*993 FILLER_0_23_111
*994 FILLER_0_23_121
*995 FILLER_0_23_140
*996 FILLER_0_23_15
*997 FILLER_0_23_189
*998 FILLER_0_23_230
*999 FILLER_0_23_256
*1000 FILLER_0_23_268
*1001 FILLER_0_23_27
*1002 FILLER_0_23_3
*1003 FILLER_0_23_308
*1004 FILLER_0_23_320
*1005 FILLER_0_23_332
*1006 FILLER_0_23_337
*1007 FILLER_0_23_349
*1008 FILLER_0_23_39
*1009 FILLER_0_23_47
*1010 FILLER_0_23_80
*1011 FILLER_0_23_92
*1012 FILLER_0_24_114
*1013 FILLER_0_24_118
*1014 FILLER_0_24_128
*1015 FILLER_0_24_15
*1016 FILLER_0_24_150
*1017 FILLER_0_24_191
*1018 FILLER_0_24_195
*1019 FILLER_0_24_256
*1020 FILLER_0_24_27
*1021 FILLER_0_24_273
*1022 FILLER_0_24_286
*1023 FILLER_0_24_29
*1024 FILLER_0_24_3
*1025 FILLER_0_24_313
*1026 FILLER_0_24_325
*1027 FILLER_0_24_337
*1028 FILLER_0_24_349
*1029 FILLER_0_24_41
*1030 FILLER_0_24_81
*1031 FILLER_0_24_85
*1032 FILLER_0_24_89
*1033 FILLER_0_25_111
*1034 FILLER_0_25_120
*1035 FILLER_0_25_132
*1036 FILLER_0_25_143
*1037 FILLER_0_25_15
*1038 FILLER_0_25_155
*1039 FILLER_0_25_167
*1040 FILLER_0_25_169
*1041 FILLER_0_25_181
*1042 FILLER_0_25_190
*1043 FILLER_0_25_196
*1044 FILLER_0_25_203
*1045 FILLER_0_25_207
*1046 FILLER_0_25_211
*1047 FILLER_0_25_223
*1048 FILLER_0_25_225
*1049 FILLER_0_25_234
*1050 FILLER_0_25_251
*1051 FILLER_0_25_27
*1052 FILLER_0_25_279
*1053 FILLER_0_25_3
*1054 FILLER_0_25_307
*1055 FILLER_0_25_319
*1056 FILLER_0_25_331
*1057 FILLER_0_25_335
*1058 FILLER_0_25_337
*1059 FILLER_0_25_349
*1060 FILLER_0_25_39
*1061 FILLER_0_25_51
*1062 FILLER_0_25_80
*1063 FILLER_0_25_92
*1064 FILLER_0_26_103
*1065 FILLER_0_26_119
*1066 FILLER_0_26_126
*1067 FILLER_0_26_130
*1068 FILLER_0_26_141
*1069 FILLER_0_26_145
*1070 FILLER_0_26_15
*1071 FILLER_0_26_197
*1072 FILLER_0_26_21
*1073 FILLER_0_26_238
*1074 FILLER_0_26_250
*1075 FILLER_0_26_253
*1076 FILLER_0_26_265
*1077 FILLER_0_26_269
*1078 FILLER_0_26_29
*1079 FILLER_0_26_3
*1080 FILLER_0_26_306
*1081 FILLER_0_26_309
*1082 FILLER_0_26_321
*1083 FILLER_0_26_333
*1084 FILLER_0_26_345
*1085 FILLER_0_26_36
*1086 FILLER_0_26_41
*1087 FILLER_0_26_53
*1088 FILLER_0_26_58
*1089 FILLER_0_26_66
*1090 FILLER_0_26_72
*1091 FILLER_0_26_85
*1092 FILLER_0_26_97
*1093 FILLER_0_27_111
*1094 FILLER_0_27_139
*1095 FILLER_0_27_151
*1096 FILLER_0_27_157
*1097 FILLER_0_27_164
*1098 FILLER_0_27_169
*1099 FILLER_0_27_181
*1100 FILLER_0_27_193
*1101 FILLER_0_27_205
*1102 FILLER_0_27_220
*1103 FILLER_0_27_225
*1104 FILLER_0_27_229
*1105 FILLER_0_27_237
*1106 FILLER_0_27_249
*1107 FILLER_0_27_257
*1108 FILLER_0_27_279
*1109 FILLER_0_27_281
*1110 FILLER_0_27_285
*1111 FILLER_0_27_291
*1112 FILLER_0_27_3
*1113 FILLER_0_27_312
*1114 FILLER_0_27_324
*1115 FILLER_0_27_337
*1116 FILLER_0_27_349
*1117 FILLER_0_27_51
*1118 FILLER_0_27_55
*1119 FILLER_0_27_63
*1120 FILLER_0_27_75
*1121 FILLER_0_27_87
*1122 FILLER_0_28_117
*1123 FILLER_0_28_124
*1124 FILLER_0_28_136
*1125 FILLER_0_28_141
*1126 FILLER_0_28_15
*1127 FILLER_0_28_171
*1128 FILLER_0_28_183
*1129 FILLER_0_28_19
*1130 FILLER_0_28_195
*1131 FILLER_0_28_230
*1132 FILLER_0_28_240
*1133 FILLER_0_28_253
*1134 FILLER_0_28_26
*1135 FILLER_0_28_261
*1136 FILLER_0_28_283
*1137 FILLER_0_28_3
*1138 FILLER_0_28_305
*1139 FILLER_0_28_309
*1140 FILLER_0_28_321
*1141 FILLER_0_28_329
*1142 FILLER_0_28_346
*1143 FILLER_0_28_350
*1144 FILLER_0_28_38
*1145 FILLER_0_28_42
*1146 FILLER_0_28_67
*1147 FILLER_0_28_73
*1148 FILLER_0_28_80
*1149 FILLER_0_28_85
*1150 FILLER_0_28_94
*1151 FILLER_0_29_105
*1152 FILLER_0_29_11
*1153 FILLER_0_29_110
*1154 FILLER_0_29_113
*1155 FILLER_0_29_121
*1156 FILLER_0_29_128
*1157 FILLER_0_29_169
*1158 FILLER_0_29_181
*1159 FILLER_0_29_211
*1160 FILLER_0_29_246
*1161 FILLER_0_29_254
*1162 FILLER_0_29_263
*1163 FILLER_0_29_267
*1164 FILLER_0_29_271
*1165 FILLER_0_29_278
*1166 FILLER_0_29_281
*1167 FILLER_0_29_289
*1168 FILLER_0_29_3
*1169 FILLER_0_29_326
*1170 FILLER_0_29_334
*1171 FILLER_0_29_337
*1172 FILLER_0_29_343
*1173 FILLER_0_29_35
*1174 FILLER_0_29_47
*1175 FILLER_0_29_55
*1176 FILLER_0_29_57
*1177 FILLER_0_2_109
*1178 FILLER_0_2_121
*1179 FILLER_0_2_133
*1180 FILLER_0_2_139
*1181 FILLER_0_2_141
*1182 FILLER_0_2_15
*1183 FILLER_0_2_153
*1184 FILLER_0_2_165
*1185 FILLER_0_2_177
*1186 FILLER_0_2_189
*1187 FILLER_0_2_195
*1188 FILLER_0_2_197
*1189 FILLER_0_2_209
*1190 FILLER_0_2_221
*1191 FILLER_0_2_233
*1192 FILLER_0_2_245
*1193 FILLER_0_2_251
*1194 FILLER_0_2_253
*1195 FILLER_0_2_265
*1196 FILLER_0_2_27
*1197 FILLER_0_2_277
*1198 FILLER_0_2_289
*1199 FILLER_0_2_29
*1200 FILLER_0_2_3
*1201 FILLER_0_2_301
*1202 FILLER_0_2_307
*1203 FILLER_0_2_309
*1204 FILLER_0_2_321
*1205 FILLER_0_2_333
*1206 FILLER_0_2_345
*1207 FILLER_0_2_41
*1208 FILLER_0_2_53
*1209 FILLER_0_2_65
*1210 FILLER_0_2_77
*1211 FILLER_0_2_83
*1212 FILLER_0_2_85
*1213 FILLER_0_2_97
*1214 FILLER_0_30_105
*1215 FILLER_0_30_113
*1216 FILLER_0_30_135
*1217 FILLER_0_30_139
*1218 FILLER_0_30_141
*1219 FILLER_0_30_147
*1220 FILLER_0_30_15
*1221 FILLER_0_30_151
*1222 FILLER_0_30_156
*1223 FILLER_0_30_160
*1224 FILLER_0_30_166
*1225 FILLER_0_30_178
*1226 FILLER_0_30_185
*1227 FILLER_0_30_194
*1228 FILLER_0_30_197
*1229 FILLER_0_30_221
*1230 FILLER_0_30_253
*1231 FILLER_0_30_257
*1232 FILLER_0_30_289
*1233 FILLER_0_30_3
*1234 FILLER_0_30_301
*1235 FILLER_0_30_307
*1236 FILLER_0_30_309
*1237 FILLER_0_30_32
*1238 FILLER_0_30_329
*1239 FILLER_0_30_349
*1240 FILLER_0_30_36
*1241 FILLER_0_30_43
*1242 FILLER_0_30_58
*1243 FILLER_0_30_64
*1244 FILLER_0_30_73
*1245 FILLER_0_31_113
*1246 FILLER_0_31_122
*1247 FILLER_0_31_132
*1248 FILLER_0_31_138
*1249 FILLER_0_31_159
*1250 FILLER_0_31_163
*1251 FILLER_0_31_167
*1252 FILLER_0_31_169
*1253 FILLER_0_31_204
*1254 FILLER_0_31_216
*1255 FILLER_0_31_275
*1256 FILLER_0_31_279
*1257 FILLER_0_31_281
*1258 FILLER_0_31_289
*1259 FILLER_0_31_293
*1260 FILLER_0_31_299
*1261 FILLER_0_31_3
*1262 FILLER_0_31_306
*1263 FILLER_0_31_334
*1264 FILLER_0_31_38
*1265 FILLER_0_31_50
*1266 FILLER_0_31_57
*1267 FILLER_0_31_61
*1268 FILLER_0_31_69
*1269 FILLER_0_31_75
*1270 FILLER_0_31_83
*1271 FILLER_0_32_123
*1272 FILLER_0_32_141
*1273 FILLER_0_32_176
*1274 FILLER_0_32_183
*1275 FILLER_0_32_195
*1276 FILLER_0_32_197
*1277 FILLER_0_32_205
*1278 FILLER_0_32_215
*1279 FILLER_0_32_227
*1280 FILLER_0_32_231
*1281 FILLER_0_32_253
*1282 FILLER_0_32_26
*1283 FILLER_0_32_265
*1284 FILLER_0_32_271
*1285 FILLER_0_32_3
*1286 FILLER_0_32_306
*1287 FILLER_0_32_32
*1288 FILLER_0_32_349
*1289 FILLER_0_32_57
*1290 FILLER_0_32_82
*1291 FILLER_0_32_98
*1292 FILLER_0_33_101
*1293 FILLER_0_33_109
*1294 FILLER_0_33_113
*1295 FILLER_0_33_125
*1296 FILLER_0_33_137
*1297 FILLER_0_33_143
*1298 FILLER_0_33_15
*1299 FILLER_0_33_163
*1300 FILLER_0_33_167
*1301 FILLER_0_33_169
*1302 FILLER_0_33_186
*1303 FILLER_0_33_200
*1304 FILLER_0_33_208
*1305 FILLER_0_33_218
*1306 FILLER_0_33_22
*1307 FILLER_0_33_237
*1308 FILLER_0_33_247
*1309 FILLER_0_33_254
*1310 FILLER_0_33_260
*1311 FILLER_0_33_264
*1312 FILLER_0_33_276
*1313 FILLER_0_33_281
*1314 FILLER_0_33_3
*1315 FILLER_0_33_331
*1316 FILLER_0_33_335
*1317 FILLER_0_33_337
*1318 FILLER_0_33_34
*1319 FILLER_0_33_349
*1320 FILLER_0_33_55
*1321 FILLER_0_33_57
*1322 FILLER_0_33_69
*1323 FILLER_0_33_81
*1324 FILLER_0_33_85
*1325 FILLER_0_33_89
*1326 FILLER_0_34_121
*1327 FILLER_0_34_133
*1328 FILLER_0_34_139
*1329 FILLER_0_34_15
*1330 FILLER_0_34_163
*1331 FILLER_0_34_191
*1332 FILLER_0_34_195
*1333 FILLER_0_34_197
*1334 FILLER_0_34_205
*1335 FILLER_0_34_211
*1336 FILLER_0_34_221
*1337 FILLER_0_34_227
*1338 FILLER_0_34_251
*1339 FILLER_0_34_253
*1340 FILLER_0_34_263
*1341 FILLER_0_34_27
*1342 FILLER_0_34_287
*1343 FILLER_0_34_29
*1344 FILLER_0_34_3
*1345 FILLER_0_34_318
*1346 FILLER_0_34_339
*1347 FILLER_0_34_41
*1348 FILLER_0_34_62
*1349 FILLER_0_34_70
*1350 FILLER_0_34_82
*1351 FILLER_0_34_85
*1352 FILLER_0_34_89
*1353 FILLER_0_35_105
*1354 FILLER_0_35_111
*1355 FILLER_0_35_113
*1356 FILLER_0_35_118
*1357 FILLER_0_35_126
*1358 FILLER_0_35_15
*1359 FILLER_0_35_165
*1360 FILLER_0_35_185
*1361 FILLER_0_35_197
*1362 FILLER_0_35_220
*1363 FILLER_0_35_236
*1364 FILLER_0_35_258
*1365 FILLER_0_35_27
*1366 FILLER_0_35_3
*1367 FILLER_0_35_301
*1368 FILLER_0_35_326
*1369 FILLER_0_35_331
*1370 FILLER_0_35_340
*1371 FILLER_0_35_348
*1372 FILLER_0_35_35
*1373 FILLER_0_35_66
*1374 FILLER_0_35_88
*1375 FILLER_0_36_135
*1376 FILLER_0_36_15
*1377 FILLER_0_36_159
*1378 FILLER_0_36_164
*1379 FILLER_0_36_171
*1380 FILLER_0_36_175
*1381 FILLER_0_36_181
*1382 FILLER_0_36_204
*1383 FILLER_0_36_249
*1384 FILLER_0_36_27
*1385 FILLER_0_36_29
*1386 FILLER_0_36_299
*1387 FILLER_0_36_3
*1388 FILLER_0_36_306
*1389 FILLER_0_36_350
*1390 FILLER_0_36_72
*1391 FILLER_0_36_81
*1392 FILLER_0_36_85
*1393 FILLER_0_36_95
*1394 FILLER_0_37_101
*1395 FILLER_0_37_109
*1396 FILLER_0_37_119
*1397 FILLER_0_37_133
*1398 FILLER_0_37_149
*1399 FILLER_0_37_15
*1400 FILLER_0_37_156
*1401 FILLER_0_37_175
*1402 FILLER_0_37_225
*1403 FILLER_0_37_245
*1404 FILLER_0_37_257
*1405 FILLER_0_37_266
*1406 FILLER_0_37_27
*1407 FILLER_0_37_278
*1408 FILLER_0_37_3
*1409 FILLER_0_37_304
*1410 FILLER_0_37_315
*1411 FILLER_0_37_340
*1412 FILLER_0_37_348
*1413 FILLER_0_37_35
*1414 FILLER_0_37_57
*1415 FILLER_0_37_69
*1416 FILLER_0_37_81
*1417 FILLER_0_37_93
*1418 FILLER_0_38_104
*1419 FILLER_0_38_110
*1420 FILLER_0_38_116
*1421 FILLER_0_38_128
*1422 FILLER_0_38_135
*1423 FILLER_0_38_139
*1424 FILLER_0_38_147
*1425 FILLER_0_38_15
*1426 FILLER_0_38_159
*1427 FILLER_0_38_167
*1428 FILLER_0_38_169
*1429 FILLER_0_38_183
*1430 FILLER_0_38_190
*1431 FILLER_0_38_197
*1432 FILLER_0_38_201
*1433 FILLER_0_38_208
*1434 FILLER_0_38_217
*1435 FILLER_0_38_225
*1436 FILLER_0_38_233
*1437 FILLER_0_38_238
*1438 FILLER_0_38_247
*1439 FILLER_0_38_251
*1440 FILLER_0_38_253
*1441 FILLER_0_38_261
*1442 FILLER_0_38_27
*1443 FILLER_0_38_273
*1444 FILLER_0_38_278
*1445 FILLER_0_38_29
*1446 FILLER_0_38_291
*1447 FILLER_0_38_3
*1448 FILLER_0_38_300
*1449 FILLER_0_38_307
*1450 FILLER_0_38_309
*1451 FILLER_0_38_315
*1452 FILLER_0_38_337
*1453 FILLER_0_38_349
*1454 FILLER_0_38_41
*1455 FILLER_0_38_53
*1456 FILLER_0_38_57
*1457 FILLER_0_38_68
*1458 FILLER_0_38_74
*1459 FILLER_0_38_80
*1460 FILLER_0_38_88
*1461 FILLER_0_38_92
*1462 FILLER_0_38_98
*1463 FILLER_0_3_105
*1464 FILLER_0_3_111
*1465 FILLER_0_3_113
*1466 FILLER_0_3_125
*1467 FILLER_0_3_137
*1468 FILLER_0_3_149
*1469 FILLER_0_3_15
*1470 FILLER_0_3_161
*1471 FILLER_0_3_167
*1472 FILLER_0_3_169
*1473 FILLER_0_3_181
*1474 FILLER_0_3_193
*1475 FILLER_0_3_205
*1476 FILLER_0_3_217
*1477 FILLER_0_3_223
*1478 FILLER_0_3_225
*1479 FILLER_0_3_237
*1480 FILLER_0_3_249
*1481 FILLER_0_3_261
*1482 FILLER_0_3_27
*1483 FILLER_0_3_273
*1484 FILLER_0_3_279
*1485 FILLER_0_3_281
*1486 FILLER_0_3_293
*1487 FILLER_0_3_3
*1488 FILLER_0_3_305
*1489 FILLER_0_3_317
*1490 FILLER_0_3_329
*1491 FILLER_0_3_335
*1492 FILLER_0_3_337
*1493 FILLER_0_3_349
*1494 FILLER_0_3_39
*1495 FILLER_0_3_51
*1496 FILLER_0_3_55
*1497 FILLER_0_3_57
*1498 FILLER_0_3_69
*1499 FILLER_0_3_81
*1500 FILLER_0_3_93
*1501 FILLER_0_4_109
*1502 FILLER_0_4_121
*1503 FILLER_0_4_133
*1504 FILLER_0_4_139
*1505 FILLER_0_4_141
*1506 FILLER_0_4_15
*1507 FILLER_0_4_153
*1508 FILLER_0_4_165
*1509 FILLER_0_4_177
*1510 FILLER_0_4_189
*1511 FILLER_0_4_195
*1512 FILLER_0_4_197
*1513 FILLER_0_4_209
*1514 FILLER_0_4_221
*1515 FILLER_0_4_233
*1516 FILLER_0_4_245
*1517 FILLER_0_4_251
*1518 FILLER_0_4_253
*1519 FILLER_0_4_265
*1520 FILLER_0_4_27
*1521 FILLER_0_4_277
*1522 FILLER_0_4_289
*1523 FILLER_0_4_29
*1524 FILLER_0_4_3
*1525 FILLER_0_4_301
*1526 FILLER_0_4_307
*1527 FILLER_0_4_309
*1528 FILLER_0_4_321
*1529 FILLER_0_4_333
*1530 FILLER_0_4_345
*1531 FILLER_0_4_41
*1532 FILLER_0_4_53
*1533 FILLER_0_4_65
*1534 FILLER_0_4_77
*1535 FILLER_0_4_83
*1536 FILLER_0_4_85
*1537 FILLER_0_4_97
*1538 FILLER_0_5_105
*1539 FILLER_0_5_111
*1540 FILLER_0_5_113
*1541 FILLER_0_5_125
*1542 FILLER_0_5_137
*1543 FILLER_0_5_149
*1544 FILLER_0_5_15
*1545 FILLER_0_5_161
*1546 FILLER_0_5_167
*1547 FILLER_0_5_169
*1548 FILLER_0_5_181
*1549 FILLER_0_5_193
*1550 FILLER_0_5_205
*1551 FILLER_0_5_217
*1552 FILLER_0_5_223
*1553 FILLER_0_5_225
*1554 FILLER_0_5_237
*1555 FILLER_0_5_249
*1556 FILLER_0_5_261
*1557 FILLER_0_5_27
*1558 FILLER_0_5_273
*1559 FILLER_0_5_279
*1560 FILLER_0_5_281
*1561 FILLER_0_5_293
*1562 FILLER_0_5_3
*1563 FILLER_0_5_305
*1564 FILLER_0_5_317
*1565 FILLER_0_5_329
*1566 FILLER_0_5_335
*1567 FILLER_0_5_337
*1568 FILLER_0_5_349
*1569 FILLER_0_5_39
*1570 FILLER_0_5_51
*1571 FILLER_0_5_55
*1572 FILLER_0_5_57
*1573 FILLER_0_5_69
*1574 FILLER_0_5_81
*1575 FILLER_0_5_93
*1576 FILLER_0_6_109
*1577 FILLER_0_6_121
*1578 FILLER_0_6_133
*1579 FILLER_0_6_139
*1580 FILLER_0_6_141
*1581 FILLER_0_6_15
*1582 FILLER_0_6_153
*1583 FILLER_0_6_165
*1584 FILLER_0_6_177
*1585 FILLER_0_6_189
*1586 FILLER_0_6_195