*SPEF "ieee 1481-1999"
*DESIGN "tt_um_wokwi_380408409844584449"
*DATE "11:11:11 Fri 11 11, 1111"
*VENDOR "OpenRCX"
*PROGRAM "Parallel Extraction"
*VERSION "1.0"
*DESIGN_FLOW "NAME_SCOPE LOCAL" "PIN_CAP NONE"
*DIVIDER /
*DELIMITER :
*BUS_DELIMITER []
*T_UNIT 1 NS
*C_UNIT 1 PF
*R_UNIT 1 OHM
*L_UNIT 1 HENRY

*NAME_MAP
*3 clk
*4 ena
*5 rst_n
*6 ui_in[0]
*7 ui_in[1]
*8 ui_in[2]
*9 ui_in[3]
*10 ui_in[4]
*11 ui_in[5]
*12 ui_in[6]
*13 ui_in[7]
*14 uio_in[0]
*15 uio_in[1]
*16 uio_in[2]
*17 uio_in[3]
*18 uio_in[4]
*19 uio_in[5]
*20 uio_in[6]
*21 uio_in[7]
*22 net8
*23 net9
*24 net10
*25 net11
*26 net12
*27 net13
*28 net14
*29 net15
*30 net16
*31 net17
*32 net18
*33 net19
*34 net20
*35 net21
*36 net22
*37 net23
*38 uo_out[0]
*39 uo_out[1]
*40 uo_out[2]
*41 uo_out[3]
*42 uo_out[4]
*43 uo_out[5]
*44 uo_out[6]
*45 uo_out[7]
*46 _00_
*47 _01_
*48 and1\.out
*49 clknet_0_clk
*50 clknet_1_0__leaf_clk
*51 clknet_1_1__leaf_clk
*52 flop1\.notq
*53 flop1\.q
*54 flop2\.d
*55 flop2\.notq
*56 flop2\.q
*57 nand1\.out
*58 net1
*59 net2
*60 net24
*61 net3
*62 net4
*63 net5
*64 net6
*65 net7
*66 not3\.out
*67 or1\.out
*68 FILLER_0_0_109
*69 FILLER_0_0_113
*70 FILLER_0_0_125
*71 FILLER_0_0_137
*72 FILLER_0_0_141
*73 FILLER_0_0_15
*74 FILLER_0_0_153
*75 FILLER_0_0_165
*76 FILLER_0_0_169
*77 FILLER_0_0_181
*78 FILLER_0_0_193
*79 FILLER_0_0_197
*80 FILLER_0_0_209
*81 FILLER_0_0_221
*82 FILLER_0_0_225
*83 FILLER_0_0_237
*84 FILLER_0_0_249
*85 FILLER_0_0_253
*86 FILLER_0_0_265
*87 FILLER_0_0_27
*88 FILLER_0_0_277
*89 FILLER_0_0_281
*90 FILLER_0_0_29
*91 FILLER_0_0_293
*92 FILLER_0_0_3
*93 FILLER_0_0_305
*94 FILLER_0_0_309
*95 FILLER_0_0_321
*96 FILLER_0_0_333
*97 FILLER_0_0_337
*98 FILLER_0_0_349
*99 FILLER_0_0_41
*100 FILLER_0_0_53
*101 FILLER_0_0_57
*102 FILLER_0_0_69
*103 FILLER_0_0_81
*104 FILLER_0_0_85
*105 FILLER_0_0_97
*106 FILLER_0_10_109
*107 FILLER_0_10_121
*108 FILLER_0_10_133
*109 FILLER_0_10_139
*110 FILLER_0_10_141
*111 FILLER_0_10_15
*112 FILLER_0_10_153
*113 FILLER_0_10_165
*114 FILLER_0_10_177
*115 FILLER_0_10_189
*116 FILLER_0_10_195
*117 FILLER_0_10_197
*118 FILLER_0_10_209
*119 FILLER_0_10_221
*120 FILLER_0_10_233
*121 FILLER_0_10_245
*122 FILLER_0_10_251
*123 FILLER_0_10_253
*124 FILLER_0_10_265
*125 FILLER_0_10_27
*126 FILLER_0_10_277
*127 FILLER_0_10_289
*128 FILLER_0_10_29
*129 FILLER_0_10_3
*130 FILLER_0_10_301
*131 FILLER_0_10_307
*132 FILLER_0_10_309
*133 FILLER_0_10_321
*134 FILLER_0_10_333
*135 FILLER_0_10_345
*136 FILLER_0_10_41
*137 FILLER_0_10_53
*138 FILLER_0_10_65
*139 FILLER_0_10_77
*140 FILLER_0_10_83
*141 FILLER_0_10_85
*142 FILLER_0_10_97
*143 FILLER_0_11_105
*144 FILLER_0_11_111
*145 FILLER_0_11_113
*146 FILLER_0_11_125
*147 FILLER_0_11_137
*148 FILLER_0_11_149
*149 FILLER_0_11_15
*150 FILLER_0_11_161
*151 FILLER_0_11_167
*152 FILLER_0_11_169
*153 FILLER_0_11_181
*154 FILLER_0_11_193
*155 FILLER_0_11_205
*156 FILLER_0_11_217
*157 FILLER_0_11_223
*158 FILLER_0_11_225
*159 FILLER_0_11_237
*160 FILLER_0_11_249
*161 FILLER_0_11_261
*162 FILLER_0_11_27
*163 FILLER_0_11_273
*164 FILLER_0_11_279
*165 FILLER_0_11_281
*166 FILLER_0_11_293
*167 FILLER_0_11_3
*168 FILLER_0_11_305
*169 FILLER_0_11_317
*170 FILLER_0_11_329
*171 FILLER_0_11_335
*172 FILLER_0_11_337
*173 FILLER_0_11_349
*174 FILLER_0_11_39
*175 FILLER_0_11_51
*176 FILLER_0_11_55
*177 FILLER_0_11_57
*178 FILLER_0_11_69
*179 FILLER_0_11_81
*180 FILLER_0_11_93
*181 FILLER_0_12_109
*182 FILLER_0_12_121
*183 FILLER_0_12_133
*184 FILLER_0_12_139
*185 FILLER_0_12_141
*186 FILLER_0_12_15
*187 FILLER_0_12_153
*188 FILLER_0_12_165
*189 FILLER_0_12_177
*190 FILLER_0_12_189
*191 FILLER_0_12_195
*192 FILLER_0_12_197
*193 FILLER_0_12_209
*194 FILLER_0_12_221
*195 FILLER_0_12_233
*196 FILLER_0_12_245
*197 FILLER_0_12_251
*198 FILLER_0_12_253
*199 FILLER_0_12_265
*200 FILLER_0_12_27
*201 FILLER_0_12_277
*202 FILLER_0_12_289
*203 FILLER_0_12_29
*204 FILLER_0_12_3
*205 FILLER_0_12_301
*206 FILLER_0_12_307
*207 FILLER_0_12_309
*208 FILLER_0_12_321
*209 FILLER_0_12_333
*210 FILLER_0_12_345
*211 FILLER_0_12_41
*212 FILLER_0_12_53
*213 FILLER_0_12_65
*214 FILLER_0_12_77
*215 FILLER_0_12_83
*216 FILLER_0_12_85
*217 FILLER_0_12_97
*218 FILLER_0_13_105
*219 FILLER_0_13_111
*220 FILLER_0_13_113
*221 FILLER_0_13_125
*222 FILLER_0_13_137
*223 FILLER_0_13_149
*224 FILLER_0_13_15
*225 FILLER_0_13_161
*226 FILLER_0_13_167
*227 FILLER_0_13_169
*228 FILLER_0_13_181
*229 FILLER_0_13_193
*230 FILLER_0_13_205
*231 FILLER_0_13_217
*232 FILLER_0_13_223
*233 FILLER_0_13_225
*234 FILLER_0_13_237
*235 FILLER_0_13_249
*236 FILLER_0_13_261
*237 FILLER_0_13_27
*238 FILLER_0_13_273
*239 FILLER_0_13_279
*240 FILLER_0_13_281
*241 FILLER_0_13_293
*242 FILLER_0_13_3
*243 FILLER_0_13_305
*244 FILLER_0_13_317
*245 FILLER_0_13_329
*246 FILLER_0_13_335
*247 FILLER_0_13_337
*248 FILLER_0_13_349
*249 FILLER_0_13_39
*250 FILLER_0_13_51
*251 FILLER_0_13_55
*252 FILLER_0_13_57
*253 FILLER_0_13_69
*254 FILLER_0_13_81
*255 FILLER_0_13_93
*256 FILLER_0_14_109
*257 FILLER_0_14_121
*258 FILLER_0_14_133
*259 FILLER_0_14_139
*260 FILLER_0_14_141
*261 FILLER_0_14_15
*262 FILLER_0_14_153
*263 FILLER_0_14_165
*264 FILLER_0_14_177
*265 FILLER_0_14_189
*266 FILLER_0_14_195
*267 FILLER_0_14_197
*268 FILLER_0_14_209
*269 FILLER_0_14_221
*270 FILLER_0_14_233
*271 FILLER_0_14_245
*272 FILLER_0_14_251
*273 FILLER_0_14_253
*274 FILLER_0_14_265
*275 FILLER_0_14_27
*276 FILLER_0_14_277
*277 FILLER_0_14_289
*278 FILLER_0_14_29
*279 FILLER_0_14_3
*280 FILLER_0_14_301
*281 FILLER_0_14_307
*282 FILLER_0_14_309
*283 FILLER_0_14_321
*284 FILLER_0_14_333
*285 FILLER_0_14_345
*286 FILLER_0_14_41
*287 FILLER_0_14_53
*288 FILLER_0_14_65
*289 FILLER_0_14_77
*290 FILLER_0_14_83
*291 FILLER_0_14_85
*292 FILLER_0_14_97
*293 FILLER_0_15_105
*294 FILLER_0_15_111
*295 FILLER_0_15_113
*296 FILLER_0_15_125
*297 FILLER_0_15_137
*298 FILLER_0_15_149
*299 FILLER_0_15_15
*300 FILLER_0_15_161
*301 FILLER_0_15_167
*302 FILLER_0_15_169
*303 FILLER_0_15_181
*304 FILLER_0_15_193
*305 FILLER_0_15_205
*306 FILLER_0_15_217
*307 FILLER_0_15_223
*308 FILLER_0_15_225
*309 FILLER_0_15_237
*310 FILLER_0_15_249
*311 FILLER_0_15_261
*312 FILLER_0_15_27
*313 FILLER_0_15_273
*314 FILLER_0_15_279
*315 FILLER_0_15_281
*316 FILLER_0_15_293
*317 FILLER_0_15_3
*318 FILLER_0_15_305
*319 FILLER_0_15_317
*320 FILLER_0_15_329
*321 FILLER_0_15_335
*322 FILLER_0_15_337
*323 FILLER_0_15_349
*324 FILLER_0_15_39
*325 FILLER_0_15_51
*326 FILLER_0_15_55
*327 FILLER_0_15_57
*328 FILLER_0_15_69
*329 FILLER_0_15_81
*330 FILLER_0_15_93
*331 FILLER_0_16_109
*332 FILLER_0_16_121
*333 FILLER_0_16_133
*334 FILLER_0_16_139
*335 FILLER_0_16_141
*336 FILLER_0_16_15
*337 FILLER_0_16_153
*338 FILLER_0_16_165
*339 FILLER_0_16_177
*340 FILLER_0_16_189
*341 FILLER_0_16_195
*342 FILLER_0_16_197
*343 FILLER_0_16_209
*344 FILLER_0_16_221
*345 FILLER_0_16_233
*346 FILLER_0_16_245
*347 FILLER_0_16_251
*348 FILLER_0_16_253
*349 FILLER_0_16_265
*350 FILLER_0_16_27
*351 FILLER_0_16_277
*352 FILLER_0_16_289
*353 FILLER_0_16_29
*354 FILLER_0_16_3
*355 FILLER_0_16_301
*356 FILLER_0_16_307
*357 FILLER_0_16_309
*358 FILLER_0_16_321
*359 FILLER_0_16_333
*360 FILLER_0_16_345
*361 FILLER_0_16_41
*362 FILLER_0_16_53
*363 FILLER_0_16_65
*364 FILLER_0_16_77
*365 FILLER_0_16_83
*366 FILLER_0_16_85
*367 FILLER_0_16_97
*368 FILLER_0_17_105
*369 FILLER_0_17_111
*370 FILLER_0_17_113
*371 FILLER_0_17_125
*372 FILLER_0_17_137
*373 FILLER_0_17_149
*374 FILLER_0_17_15
*375 FILLER_0_17_161
*376 FILLER_0_17_167
*377 FILLER_0_17_169
*378 FILLER_0_17_181
*379 FILLER_0_17_193
*380 FILLER_0_17_205
*381 FILLER_0_17_217
*382 FILLER_0_17_223
*383 FILLER_0_17_225
*384 FILLER_0_17_237
*385 FILLER_0_17_249
*386 FILLER_0_17_261
*387 FILLER_0_17_27
*388 FILLER_0_17_273
*389 FILLER_0_17_279
*390 FILLER_0_17_281
*391 FILLER_0_17_293
*392 FILLER_0_17_3
*393 FILLER_0_17_305
*394 FILLER_0_17_317
*395 FILLER_0_17_329
*396 FILLER_0_17_335
*397 FILLER_0_17_337
*398 FILLER_0_17_349
*399 FILLER_0_17_39
*400 FILLER_0_17_51
*401 FILLER_0_17_55
*402 FILLER_0_17_57
*403 FILLER_0_17_69
*404 FILLER_0_17_81
*405 FILLER_0_17_93
*406 FILLER_0_18_109
*407 FILLER_0_18_121
*408 FILLER_0_18_133
*409 FILLER_0_18_139
*410 FILLER_0_18_141
*411 FILLER_0_18_15
*412 FILLER_0_18_153
*413 FILLER_0_18_165
*414 FILLER_0_18_177
*415 FILLER_0_18_189
*416 FILLER_0_18_195
*417 FILLER_0_18_197
*418 FILLER_0_18_209
*419 FILLER_0_18_221
*420 FILLER_0_18_233
*421 FILLER_0_18_245
*422 FILLER_0_18_251
*423 FILLER_0_18_253
*424 FILLER_0_18_265
*425 FILLER_0_18_27
*426 FILLER_0_18_277
*427 FILLER_0_18_289
*428 FILLER_0_18_29
*429 FILLER_0_18_3
*430 FILLER_0_18_301
*431 FILLER_0_18_307
*432 FILLER_0_18_309
*433 FILLER_0_18_321
*434 FILLER_0_18_333
*435 FILLER_0_18_345
*436 FILLER_0_18_41
*437 FILLER_0_18_53
*438 FILLER_0_18_65
*439 FILLER_0_18_77
*440 FILLER_0_18_83
*441 FILLER_0_18_85
*442 FILLER_0_18_97
*443 FILLER_0_19_105
*444 FILLER_0_19_111
*445 FILLER_0_19_113
*446 FILLER_0_19_125
*447 FILLER_0_19_137
*448 FILLER_0_19_149
*449 FILLER_0_19_15
*450 FILLER_0_19_161
*451 FILLER_0_19_167
*452 FILLER_0_19_169
*453 FILLER_0_19_181
*454 FILLER_0_19_193
*455 FILLER_0_19_205
*456 FILLER_0_19_217
*457 FILLER_0_19_223
*458 FILLER_0_19_225
*459 FILLER_0_19_237
*460 FILLER_0_19_249
*461 FILLER_0_19_261
*462 FILLER_0_19_27
*463 FILLER_0_19_273
*464 FILLER_0_19_279
*465 FILLER_0_19_281
*466 FILLER_0_19_293
*467 FILLER_0_19_3
*468 FILLER_0_19_305
*469 FILLER_0_19_317
*470 FILLER_0_19_329
*471 FILLER_0_19_335
*472 FILLER_0_19_337
*473 FILLER_0_19_349
*474 FILLER_0_19_39
*475 FILLER_0_19_51
*476 FILLER_0_19_55
*477 FILLER_0_19_57
*478 FILLER_0_19_69
*479 FILLER_0_19_81
*480 FILLER_0_19_93
*481 FILLER_0_1_105
*482 FILLER_0_1_111
*483 FILLER_0_1_113
*484 FILLER_0_1_125
*485 FILLER_0_1_137
*486 FILLER_0_1_149
*487 FILLER_0_1_15
*488 FILLER_0_1_161
*489 FILLER_0_1_167
*490 FILLER_0_1_169
*491 FILLER_0_1_181
*492 FILLER_0_1_193
*493 FILLER_0_1_205
*494 FILLER_0_1_217
*495 FILLER_0_1_223
*496 FILLER_0_1_225
*497 FILLER_0_1_237
*498 FILLER_0_1_249
*499 FILLER_0_1_261
*500 FILLER_0_1_27
*501 FILLER_0_1_273
*502 FILLER_0_1_279
*503 FILLER_0_1_281
*504 FILLER_0_1_293
*505 FILLER_0_1_3
*506 FILLER_0_1_305
*507 FILLER_0_1_317
*508 FILLER_0_1_329
*509 FILLER_0_1_335
*510 FILLER_0_1_337
*511 FILLER_0_1_349
*512 FILLER_0_1_39
*513 FILLER_0_1_51
*514 FILLER_0_1_55
*515 FILLER_0_1_57
*516 FILLER_0_1_69
*517 FILLER_0_1_81
*518 FILLER_0_1_93
*519 FILLER_0_20_109
*520 FILLER_0_20_121
*521 FILLER_0_20_133
*522 FILLER_0_20_139
*523 FILLER_0_20_141
*524 FILLER_0_20_15
*525 FILLER_0_20_153
*526 FILLER_0_20_165
*527 FILLER_0_20_177
*528 FILLER_0_20_189
*529 FILLER_0_20_195
*530 FILLER_0_20_197
*531 FILLER_0_20_209
*532 FILLER_0_20_221
*533 FILLER_0_20_233
*534 FILLER_0_20_245
*535 FILLER_0_20_251
*536 FILLER_0_20_253
*537 FILLER_0_20_265
*538 FILLER_0_20_27
*539 FILLER_0_20_277
*540 FILLER_0_20_289
*541 FILLER_0_20_29
*542 FILLER_0_20_3
*543 FILLER_0_20_301
*544 FILLER_0_20_307
*545 FILLER_0_20_309
*546 FILLER_0_20_321
*547 FILLER_0_20_333
*548 FILLER_0_20_345
*549 FILLER_0_20_41
*550 FILLER_0_20_53
*551 FILLER_0_20_65
*552 FILLER_0_20_77
*553 FILLER_0_20_83
*554 FILLER_0_20_85
*555 FILLER_0_20_97
*556 FILLER_0_21_105
*557 FILLER_0_21_111
*558 FILLER_0_21_113
*559 FILLER_0_21_125
*560 FILLER_0_21_137
*561 FILLER_0_21_149
*562 FILLER_0_21_15
*563 FILLER_0_21_161
*564 FILLER_0_21_167
*565 FILLER_0_21_169
*566 FILLER_0_21_181
*567 FILLER_0_21_193
*568 FILLER_0_21_205
*569 FILLER_0_21_217
*570 FILLER_0_21_223
*571 FILLER_0_21_225
*572 FILLER_0_21_237
*573 FILLER_0_21_249
*574 FILLER_0_21_261
*575 FILLER_0_21_27
*576 FILLER_0_21_273
*577 FILLER_0_21_279
*578 FILLER_0_21_281
*579 FILLER_0_21_293
*580 FILLER_0_21_3
*581 FILLER_0_21_305
*582 FILLER_0_21_317
*583 FILLER_0_21_329
*584 FILLER_0_21_335
*585 FILLER_0_21_337
*586 FILLER_0_21_349
*587 FILLER_0_21_39
*588 FILLER_0_21_51
*589 FILLER_0_21_55
*590 FILLER_0_21_57
*591 FILLER_0_21_69
*592 FILLER_0_21_81
*593 FILLER_0_21_93
*594 FILLER_0_22_109
*595 FILLER_0_22_121
*596 FILLER_0_22_133
*597 FILLER_0_22_139
*598 FILLER_0_22_141
*599 FILLER_0_22_15
*600 FILLER_0_22_153
*601 FILLER_0_22_165
*602 FILLER_0_22_177
*603 FILLER_0_22_189
*604 FILLER_0_22_195
*605 FILLER_0_22_197
*606 FILLER_0_22_209
*607 FILLER_0_22_221
*608 FILLER_0_22_233
*609 FILLER_0_22_245
*610 FILLER_0_22_251
*611 FILLER_0_22_253
*612 FILLER_0_22_265
*613 FILLER_0_22_27
*614 FILLER_0_22_277
*615 FILLER_0_22_289
*616 FILLER_0_22_29
*617 FILLER_0_22_3
*618 FILLER_0_22_301
*619 FILLER_0_22_307
*620 FILLER_0_22_309
*621 FILLER_0_22_321
*622 FILLER_0_22_333
*623 FILLER_0_22_345
*624 FILLER_0_22_41
*625 FILLER_0_22_53
*626 FILLER_0_22_65
*627 FILLER_0_22_77
*628 FILLER_0_22_83
*629 FILLER_0_22_85
*630 FILLER_0_22_97
*631 FILLER_0_23_105
*632 FILLER_0_23_111
*633 FILLER_0_23_113
*634 FILLER_0_23_125
*635 FILLER_0_23_137
*636 FILLER_0_23_149
*637 FILLER_0_23_15
*638 FILLER_0_23_161
*639 FILLER_0_23_167
*640 FILLER_0_23_169
*641 FILLER_0_23_181
*642 FILLER_0_23_193
*643 FILLER_0_23_205
*644 FILLER_0_23_217
*645 FILLER_0_23_223
*646 FILLER_0_23_225
*647 FILLER_0_23_237
*648 FILLER_0_23_249
*649 FILLER_0_23_261
*650 FILLER_0_23_27
*651 FILLER_0_23_273
*652 FILLER_0_23_279
*653 FILLER_0_23_281
*654 FILLER_0_23_293
*655 FILLER_0_23_3
*656 FILLER_0_23_305
*657 FILLER_0_23_317
*658 FILLER_0_23_329
*659 FILLER_0_23_335
*660 FILLER_0_23_337
*661 FILLER_0_23_349
*662 FILLER_0_23_39
*663 FILLER_0_23_51
*664 FILLER_0_23_55
*665 FILLER_0_23_57
*666 FILLER_0_23_69
*667 FILLER_0_23_81
*668 FILLER_0_23_93
*669 FILLER_0_24_109
*670 FILLER_0_24_121
*671 FILLER_0_24_133
*672 FILLER_0_24_139
*673 FILLER_0_24_141
*674 FILLER_0_24_15
*675 FILLER_0_24_153
*676 FILLER_0_24_165
*677 FILLER_0_24_177
*678 FILLER_0_24_189
*679 FILLER_0_24_195
*680 FILLER_0_24_197
*681 FILLER_0_24_209
*682 FILLER_0_24_221
*683 FILLER_0_24_233
*684 FILLER_0_24_245
*685 FILLER_0_24_251
*686 FILLER_0_24_253
*687 FILLER_0_24_265
*688 FILLER_0_24_27
*689 FILLER_0_24_277
*690 FILLER_0_24_289
*691 FILLER_0_24_29
*692 FILLER_0_24_3
*693 FILLER_0_24_301
*694 FILLER_0_24_307
*695 FILLER_0_24_309
*696 FILLER_0_24_321
*697 FILLER_0_24_333
*698 FILLER_0_24_345
*699 FILLER_0_24_41
*700 FILLER_0_24_53
*701 FILLER_0_24_65
*702 FILLER_0_24_77
*703 FILLER_0_24_83
*704 FILLER_0_24_85
*705 FILLER_0_24_97
*706 FILLER_0_25_105
*707 FILLER_0_25_111
*708 FILLER_0_25_113
*709 FILLER_0_25_125
*710 FILLER_0_25_137
*711 FILLER_0_25_149
*712 FILLER_0_25_15
*713 FILLER_0_25_161
*714 FILLER_0_25_167
*715 FILLER_0_25_169
*716 FILLER_0_25_181
*717 FILLER_0_25_193
*718 FILLER_0_25_205
*719 FILLER_0_25_217
*720 FILLER_0_25_223
*721 FILLER_0_25_225
*722 FILLER_0_25_237
*723 FILLER_0_25_249
*724 FILLER_0_25_261
*725 FILLER_0_25_27
*726 FILLER_0_25_273
*727 FILLER_0_25_279
*728 FILLER_0_25_281
*729 FILLER_0_25_293
*730 FILLER_0_25_3
*731 FILLER_0_25_305
*732 FILLER_0_25_317
*733 FILLER_0_25_329
*734 FILLER_0_25_335
*735 FILLER_0_25_337
*736 FILLER_0_25_349
*737 FILLER_0_25_39
*738 FILLER_0_25_51
*739 FILLER_0_25_55
*740 FILLER_0_25_57
*741 FILLER_0_25_69
*742 FILLER_0_25_81
*743 FILLER_0_25_93
*744 FILLER_0_26_109
*745 FILLER_0_26_121
*746 FILLER_0_26_133
*747 FILLER_0_26_139
*748 FILLER_0_26_141
*749 FILLER_0_26_15
*750 FILLER_0_26_153
*751 FILLER_0_26_165
*752 FILLER_0_26_177
*753 FILLER_0_26_189
*754 FILLER_0_26_195
*755 FILLER_0_26_197
*756 FILLER_0_26_209
*757 FILLER_0_26_221
*758 FILLER_0_26_233
*759 FILLER_0_26_245
*760 FILLER_0_26_251
*761 FILLER_0_26_253
*762 FILLER_0_26_265
*763 FILLER_0_26_27
*764 FILLER_0_26_277
*765 FILLER_0_26_289
*766 FILLER_0_26_29
*767 FILLER_0_26_3
*768 FILLER_0_26_301
*769 FILLER_0_26_307
*770 FILLER_0_26_309
*771 FILLER_0_26_321
*772 FILLER_0_26_333
*773 FILLER_0_26_345
*774 FILLER_0_26_41
*775 FILLER_0_26_53
*776 FILLER_0_26_65
*777 FILLER_0_26_77
*778 FILLER_0_26_83
*779 FILLER_0_26_85
*780 FILLER_0_26_97
*781 FILLER_0_27_105
*782 FILLER_0_27_111
*783 FILLER_0_27_113
*784 FILLER_0_27_125
*785 FILLER_0_27_137
*786 FILLER_0_27_149
*787 FILLER_0_27_15
*788 FILLER_0_27_161
*789 FILLER_0_27_167
*790 FILLER_0_27_169
*791 FILLER_0_27_181
*792 FILLER_0_27_193
*793 FILLER_0_27_205
*794 FILLER_0_27_217
*795 FILLER_0_27_223
*796 FILLER_0_27_225
*797 FILLER_0_27_237
*798 FILLER_0_27_249
*799 FILLER_0_27_261
*800 FILLER_0_27_27
*801 FILLER_0_27_273
*802 FILLER_0_27_279
*803 FILLER_0_27_281
*804 FILLER_0_27_293
*805 FILLER_0_27_3
*806 FILLER_0_27_305
*807 FILLER_0_27_317
*808 FILLER_0_27_329
*809 FILLER_0_27_335
*810 FILLER_0_27_337
*811 FILLER_0_27_349
*812 FILLER_0_27_39
*813 FILLER_0_27_51
*814 FILLER_0_27_55
*815 FILLER_0_27_57
*816 FILLER_0_27_69
*817 FILLER_0_27_81
*818 FILLER_0_27_93
*819 FILLER_0_28_109
*820 FILLER_0_28_121
*821 FILLER_0_28_133
*822 FILLER_0_28_139
*823 FILLER_0_28_141
*824 FILLER_0_28_15
*825 FILLER_0_28_153
*826 FILLER_0_28_165
*827 FILLER_0_28_177
*828 FILLER_0_28_189
*829 FILLER_0_28_195
*830 FILLER_0_28_197
*831 FILLER_0_28_209
*832 FILLER_0_28_221
*833 FILLER_0_28_233
*834 FILLER_0_28_245
*835 FILLER_0_28_251
*836 FILLER_0_28_253
*837 FILLER_0_28_265
*838 FILLER_0_28_27
*839 FILLER_0_28_277
*840 FILLER_0_28_289
*841 FILLER_0_28_29
*842 FILLER_0_28_3
*843 FILLER_0_28_301
*844 FILLER_0_28_307
*845 FILLER_0_28_309
*846 FILLER_0_28_321
*847 FILLER_0_28_333
*848 FILLER_0_28_345
*849 FILLER_0_28_41
*850 FILLER_0_28_53
*851 FILLER_0_28_65
*852 FILLER_0_28_77
*853 FILLER_0_28_83
*854 FILLER_0_28_85
*855 FILLER_0_28_97
*856 FILLER_0_29_105
*857 FILLER_0_29_111
*858 FILLER_0_29_113
*859 FILLER_0_29_125
*860 FILLER_0_29_137
*861 FILLER_0_29_149
*862 FILLER_0_29_15
*863 FILLER_0_29_161
*864 FILLER_0_29_167
*865 FILLER_0_29_169
*866 FILLER_0_29_181
*867 FILLER_0_29_193
*868 FILLER_0_29_205
*869 FILLER_0_29_217
*870 FILLER_0_29_223
*871 FILLER_0_29_225
*872 FILLER_0_29_237
*873 FILLER_0_29_249
*874 FILLER_0_29_261
*875 FILLER_0_29_27
*876 FILLER_0_29_273
*877 FILLER_0_29_279
*878 FILLER_0_29_281
*879 FILLER_0_29_293
*880 FILLER_0_29_3
*881 FILLER_0_29_305
*882 FILLER_0_29_317
*883 FILLER_0_29_329
*884 FILLER_0_29_335
*885 FILLER_0_29_337
*886 FILLER_0_29_349
*887 FILLER_0_29_39
*888 FILLER_0_29_51
*889 FILLER_0_29_55
*890 FILLER_0_29_57
*891 FILLER_0_29_69
*892 FILLER_0_29_81
*893 FILLER_0_29_93
*894 FILLER_0_2_109
*895 FILLER_0_2_121
*896 FILLER_0_2_133
*897 FILLER_0_2_139
*898 FILLER_0_2_141
*899 FILLER_0_2_15
*900 FILLER_0_2_153
*901 FILLER_0_2_165
*902 FILLER_0_2_177
*903 FILLER_0_2_189
*904 FILLER_0_2_195
*905 FILLER_0_2_197
*906 FILLER_0_2_209
*907 FILLER_0_2_221
*908 FILLER_0_2_233
*909 FILLER_0_2_245
*910 FILLER_0_2_251
*911 FILLER_0_2_253
*912 FILLER_0_2_265
*913 FILLER_0_2_27
*914 FILLER_0_2_277
*915 FILLER_0_2_289
*916 FILLER_0_2_29
*917 FILLER_0_2_3
*918 FILLER_0_2_301
*919 FILLER_0_2_307
*920 FILLER_0_2_309
*921 FILLER_0_2_321
*922 FILLER_0_2_333
*923 FILLER_0_2_345
*924 FILLER_0_2_41
*925 FILLER_0_2_53
*926 FILLER_0_2_65
*927 FILLER_0_2_77
*928 FILLER_0_2_83
*929 FILLER_0_2_85
*930 FILLER_0_2_97
*931 FILLER_0_30_109
*932 FILLER_0_30_121
*933 FILLER_0_30_133
*934 FILLER_0_30_139
*935 FILLER_0_30_141
*936 FILLER_0_30_15
*937 FILLER_0_30_153
*938 FILLER_0_30_165
*939 FILLER_0_30_177
*940 FILLER_0_30_189
*941 FILLER_0_30_195
*942 FILLER_0_30_197
*943 FILLER_0_30_209
*944 FILLER_0_30_221
*945 FILLER_0_30_233
*946 FILLER_0_30_245
*947 FILLER_0_30_251
*948 FILLER_0_30_253
*949 FILLER_0_30_265
*950 FILLER_0_30_27
*951 FILLER_0_30_277
*952 FILLER_0_30_289
*953 FILLER_0_30_29
*954 FILLER_0_30_3
*955 FILLER_0_30_301
*956 FILLER_0_30_307
*957 FILLER_0_30_309
*958 FILLER_0_30_321
*959 FILLER_0_30_333
*960 FILLER_0_30_345
*961 FILLER_0_30_41
*962 FILLER_0_30_53
*963 FILLER_0_30_65
*964 FILLER_0_30_77
*965 FILLER_0_30_83
*966 FILLER_0_30_85
*967 FILLER_0_30_97
*968 FILLER_0_31_105
*969 FILLER_0_31_111
*970 FILLER_0_31_113
*971 FILLER_0_31_125
*972 FILLER_0_31_137
*973 FILLER_0_31_149
*974 FILLER_0_31_15
*975 FILLER_0_31_161
*976 FILLER_0_31_167
*977 FILLER_0_31_169
*978 FILLER_0_31_181
*979 FILLER_0_31_193
*980 FILLER_0_31_205
*981 FILLER_0_31_217
*982 FILLER_0_31_223
*983 FILLER_0_31_225
*984 FILLER_0_31_237
*985 FILLER_0_31_249
*986 FILLER_0_31_261
*987 FILLER_0_31_27
*988 FILLER_0_31_273
*989 FILLER_0_31_279
*990 FILLER_0_31_281
*991 FILLER_0_31_293
*992 FILLER_0_31_3
*993 FILLER_0_31_305
*994 FILLER_0_31_317
*995 FILLER_0_31_329
*996 FILLER_0_31_335
*997 FILLER_0_31_337
*998 FILLER_0_31_349
*999 FILLER_0_31_39
*1000 FILLER_0_31_51
*1001 FILLER_0_31_55
*1002 FILLER_0_31_57
*1003 FILLER_0_31_69
*1004 FILLER_0_31_81
*1005 FILLER_0_31_93
*1006 FILLER_0_32_109
*1007 FILLER_0_32_121
*1008 FILLER_0_32_133
*1009 FILLER_0_32_139
*1010 FILLER_0_32_141
*1011 FILLER_0_32_15
*1012 FILLER_0_32_153
*1013 FILLER_0_32_165
*1014 FILLER_0_32_177
*1015 FILLER_0_32_189
*1016 FILLER_0_32_195
*1017 FILLER_0_32_197
*1018 FILLER_0_32_209
*1019 FILLER_0_32_221
*1020 FILLER_0_32_233
*1021 FILLER_0_32_245
*1022 FILLER_0_32_251
*1023 FILLER_0_32_253
*1024 FILLER_0_32_265
*1025 FILLER_0_32_27
*1026 FILLER_0_32_277
*1027 FILLER_0_32_289
*1028 FILLER_0_32_29
*1029 FILLER_0_32_3
*1030 FILLER_0_32_301
*1031 FILLER_0_32_307
*1032 FILLER_0_32_309
*1033 FILLER_0_32_321
*1034 FILLER_0_32_333
*1035 FILLER_0_32_345
*1036 FILLER_0_32_41
*1037 FILLER_0_32_53
*1038 FILLER_0_32_65
*1039 FILLER_0_32_77
*1040 FILLER_0_32_83
*1041 FILLER_0_32_85
*1042 FILLER_0_32_97
*1043 FILLER_0_33_105
*1044 FILLER_0_33_111
*1045 FILLER_0_33_113
*1046 FILLER_0_33_125
*1047 FILLER_0_33_137
*1048 FILLER_0_33_149
*1049 FILLER_0_33_15
*1050 FILLER_0_33_161
*1051 FILLER_0_33_167
*1052 FILLER_0_33_169
*1053 FILLER_0_33_181
*1054 FILLER_0_33_193
*1055 FILLER_0_33_205
*1056 FILLER_0_33_217
*1057 FILLER_0_33_223
*1058 FILLER_0_33_225
*1059 FILLER_0_33_237
*1060 FILLER_0_33_249
*1061 FILLER_0_33_261
*1062 FILLER_0_33_27
*1063 FILLER_0_33_273
*1064 FILLER_0_33_279
*1065 FILLER_0_33_281
*1066 FILLER_0_33_293
*1067 FILLER_0_33_3
*1068 FILLER_0_33_305
*1069 FILLER_0_33_317
*1070 FILLER_0_33_329
*1071 FILLER_0_33_335
*1072 FILLER_0_33_337
*1073 FILLER_0_33_349
*1074 FILLER_0_33_39
*1075 FILLER_0_33_51
*1076 FILLER_0_33_55
*1077 FILLER_0_33_57
*1078 FILLER_0_33_69
*1079 FILLER_0_33_81
*1080 FILLER_0_33_93
*1081 FILLER_0_34_109
*1082 FILLER_0_34_121
*1083 FILLER_0_34_133
*1084 FILLER_0_34_139
*1085 FILLER_0_34_141
*1086 FILLER_0_34_15
*1087 FILLER_0_34_153
*1088 FILLER_0_34_165
*1089 FILLER_0_34_191
*1090 FILLER_0_34_195
*1091 FILLER_0_34_197
*1092 FILLER_0_34_209
*1093 FILLER_0_34_221
*1094 FILLER_0_34_229
*1095 FILLER_0_34_251
*1096 FILLER_0_34_253
*1097 FILLER_0_34_265
*1098 FILLER_0_34_27
*1099 FILLER_0_34_277
*1100 FILLER_0_34_289
*1101 FILLER_0_34_29
*1102 FILLER_0_34_3
*1103 FILLER_0_34_301
*1104 FILLER_0_34_307
*1105 FILLER_0_34_309
*1106 FILLER_0_34_321
*1107 FILLER_0_34_333
*1108 FILLER_0_34_345
*1109 FILLER_0_34_41
*1110 FILLER_0_34_53
*1111 FILLER_0_34_65
*1112 FILLER_0_34_77
*1113 FILLER_0_34_83
*1114 FILLER_0_34_85
*1115 FILLER_0_34_97
*1116 FILLER_0_35_105
*1117 FILLER_0_35_111
*1118 FILLER_0_35_113
*1119 FILLER_0_35_125
*1120 FILLER_0_35_137
*1121 FILLER_0_35_149
*1122 FILLER_0_35_15
*1123 FILLER_0_35_161
*1124 FILLER_0_35_167
*1125 FILLER_0_35_169
*1126 FILLER_0_35_181
*1127 FILLER_0_35_193
*1128 FILLER_0_35_205
*1129 FILLER_0_35_217
*1130 FILLER_0_35_223
*1131 FILLER_0_35_225
*1132 FILLER_0_35_237
*1133 FILLER_0_35_249
*1134 FILLER_0_35_261
*1135 FILLER_0_35_27
*1136 FILLER_0_35_273
*1137 FILLER_0_35_279
*1138 FILLER_0_35_281
*1139 FILLER_0_35_293
*1140 FILLER_0_35_3
*1141 FILLER_0_35_305
*1142 FILLER_0_35_317
*1143 FILLER_0_35_329
*1144 FILLER_0_35_335
*1145 FILLER_0_35_337
*1146 FILLER_0_35_349
*1147 FILLER_0_35_39
*1148 FILLER_0_35_51
*1149 FILLER_0_35_55
*1150 FILLER_0_35_57
*1151 FILLER_0_35_69
*1152 FILLER_0_35_81
*1153 FILLER_0_35_93
*1154 FILLER_0_36_109
*1155 FILLER_0_36_121
*1156 FILLER_0_36_133
*1157 FILLER_0_36_139
*1158 FILLER_0_36_141
*1159 FILLER_0_36_15
*1160 FILLER_0_36_153
*1161 FILLER_0_36_165
*1162 FILLER_0_36_177
*1163 FILLER_0_36_189
*1164 FILLER_0_36_195
*1165 FILLER_0_36_197
*1166 FILLER_0_36_209
*1167 FILLER_0_36_221
*1168 FILLER_0_36_229
*1169 FILLER_0_36_245
*1170 FILLER_0_36_251
*1171 FILLER_0_36_253
*1172 FILLER_0_36_265
*1173 FILLER_0_36_27
*1174 FILLER_0_36_277
*1175 FILLER_0_36_289
*1176 FILLER_0_36_29
*1177 FILLER_0_36_3
*1178 FILLER_0_36_301
*1179 FILLER_0_36_307
*1180 FILLER_0_36_309
*1181 FILLER_0_36_321
*1182 FILLER_0_36_333
*1183 FILLER_0_36_345
*1184 FILLER_0_36_41
*1185 FILLER_0_36_53
*1186 FILLER_0_36_65
*1187 FILLER_0_36_77
*1188 FILLER_0_36_83
*1189 FILLER_0_36_85
*1190 FILLER_0_36_97
*1191 FILLER_0_37_105
*1192 FILLER_0_37_111
*1193 FILLER_0_37_113
*1194 FILLER_0_37_125
*1195 FILLER_0_37_137
*1196 FILLER_0_37_149
*1197 FILLER_0_37_15
*1198 FILLER_0_37_161
*1199 FILLER_0_37_167
*1200 FILLER_0_37_169
*1201 FILLER_0_37_177
*1202 FILLER_0_37_182
*1203 FILLER_0_37_190
*1204 FILLER_0_37_198
*1205 FILLER_0_37_213
*1206 FILLER_0_37_221
*1207 FILLER_0_37_241
*1208 FILLER_0_37_253
*1209 FILLER_0_37_260
*1210 FILLER_0_37_27
*1211 FILLER_0_37_272
*1212 FILLER_0_37_281
*1213 FILLER_0_37_293
*1214 FILLER_0_37_3
*1215 FILLER_0_37_305
*1216 FILLER_0_37_317
*1217 FILLER_0_37_329
*1218 FILLER_0_37_335
*1219 FILLER_0_37_337
*1220 FILLER_0_37_349
*1221 FILLER_0_37_39
*1222 FILLER_0_37_51
*1223 FILLER_0_37_55
*1224 FILLER_0_37_57
*1225 FILLER_0_37_69
*1226 FILLER_0_37_81
*1227 FILLER_0_37_93
*1228 FILLER_0_38_104
*1229 FILLER_0_38_110
*1230 FILLER_0_38_116
*1231 FILLER_0_38_122
*1232 FILLER_0_38_128
*1233 FILLER_0_38_134
*1234 FILLER_0_38_141
*1235 FILLER_0_38_146
*1236 FILLER_0_38_15
*1237 FILLER_0_38_152
*1238 FILLER_0_38_165
*1239 FILLER_0_38_169
*1240 FILLER_0_38_179
*1241 FILLER_0_38_185
*1242 FILLER_0_38_197
*1243 FILLER_0_38_214
*1244 FILLER_0_38_222
*1245 FILLER_0_38_225
*1246 FILLER_0_38_247
*1247 FILLER_0_38_27
*1248 FILLER_0_38_275
*1249 FILLER_0_38_279
*1250 FILLER_0_38_284
*1251 FILLER_0_38_29
*1252 FILLER_0_38_290
*1253 FILLER_0_38_296
*1254 FILLER_0_38_3
*1255 FILLER_0_38_302
*1256 FILLER_0_38_309
*1257 FILLER_0_38_321
*1258 FILLER_0_38_333
*1259 FILLER_0_38_337
*1260 FILLER_0_38_349
*1261 FILLER_0_38_41
*1262 FILLER_0_38_53
*1263 FILLER_0_38_57
*1264 FILLER_0_38_68
*1265 FILLER_0_38_74
*1266 FILLER_0_38_80
*1267 FILLER_0_38_88
*1268 FILLER_0_38_92
*1269 FILLER_0_38_98
*1270 FILLER_0_3_105
*1271 FILLER_0_3_111
*1272 FILLER_0_3_113
*1273 FILLER_0_3_125
*1274 FILLER_0_3_137
*1275 FILLER_0_3_149
*1276 FILLER_0_3_15
*1277 FILLER_0_3_161
*1278 FILLER_0_3_167
*1279 FILLER_0_3_169
*1280 FILLER_0_3_181
*1281 FILLER_0_3_193
*1282 FILLER_0_3_205
*1283 FILLER_0_3_217
*1284 FILLER_0_3_223
*1285 FILLER_0_3_225
*1286 FILLER_0_3_237
*1287 FILLER_0_3_249
*1288 FILLER_0_3_261
*1289 FILLER_0_3_27
*1290 FILLER_0_3_273
*1291 FILLER_0_3_279
*1292 FILLER_0_3_281
*1293 FILLER_0_3_293
*1294 FILLER_0_3_3
*1295 FILLER_0_3_305
*1296 FILLER_0_3_317
*1297 FILLER_0_3_329
*1298 FILLER_0_3_335
*1299 FILLER_0_3_337
*1300 FILLER_0_3_349
*1301 FILLER_0_3_39
*1302 FILLER_0_3_51
*1303 FILLER_0_3_55
*1304 FILLER_0_3_57
*1305 FILLER_0_3_69
*1306 FILLER_0_3_81
*1307 FILLER_0_3_93
*1308 FILLER_0_4_109
*1309 FILLER_0_4_121
*1310 FILLER_0_4_133
*1311 FILLER_0_4_139
*1312 FILLER_0_4_141
*1313 FILLER_0_4_15
*1314 FILLER_0_4_153
*1315 FILLER_0_4_165
*1316 FILLER_0_4_177
*1317 FILLER_0_4_189
*1318 FILLER_0_4_195
*1319 FILLER_0_4_197
*1320 FILLER_0_4_209
*1321 FILLER_0_4_221
*1322 FILLER_0_4_233
*1323 FILLER_0_4_245
*1324 FILLER_0_4_251
*1325 FILLER_0_4_253
*1326 FILLER_0_4_265
*1327 FILLER_0_4_27
*1328 FILLER_0_4_277
*1329 FILLER_0_4_289
*1330 FILLER_0_4_29
*1331 FILLER_0_4_3
*1332 FILLER_0_4_301
*1333 FILLER_0_4_307
*1334 FILLER_0_4_309
*1335 FILLER_0_4_321
*1336 FILLER_0_4_333
*1337 FILLER_0_4_345
*1338 FILLER_0_4_41
*1339 FILLER_0_4_53
*1340 FILLER_0_4_65
*1341 FILLER_0_4_77
*1342 FILLER_0_4_83
*1343 FILLER_0_4_85
*1344 FILLER_0_4_97
*1345 FILLER_0_5_105
*1346 FILLER_0_5_111
*1347 FILLER_0_5_113
*1348 FILLER_0_5_125
*1349 FILLER_0_5_137
*1350 FILLER_0_5_149
*1351 FILLER_0_5_15
*1352 FILLER_0_5_161
*1353 FILLER_0_5_167
*1354 FILLER_0_5_169
*1355 FILLER_0_5_181
*1356 FILLER_0_5_193
*1357 FILLER_0_5_205
*1358 FILLER_0_5_217
*1359 FILLER_0_5_223
*1360 FILLER_0_5_225
*1361 FILLER_0_5_237
*1362 FILLER_0_5_249
*1363 FILLER_0_5_261
*1364 FILLER_0_5_27
*1365 FILLER_0_5_273
*1366 FILLER_0_5_279
*1367 FILLER_0_5_281
*1368 FILLER_0_5_293
*1369 FILLER_0_5_3
*1370 FILLER_0_5_305
*1371 FILLER_0_5_317
*1372 FILLER_0_5_329
*1373 FILLER_0_5_335
*1374 FILLER_0_5_337
*1375 FILLER_0_5_349
*1376 FILLER_0_5_39
*1377 FILLER_0_5_51
*1378 FILLER_0_5_55
*1379 FILLER_0_5_57
*1380 FILLER_0_5_69
*1381 FILLER_0_5_81
*1382 FILLER_0_5_93
*1383 FILLER_0_6_109
*1384 FILLER_0_6_121
*1385 FILLER_0_6_133
*1386 FILLER_0_6_139
*1387 FILLER_0_6_141
*1388 FILLER_0_6_15
*1389 FILLER_0_6_153
*1390 FILLER_0_6_165
*1391 FILLER_0_6_177
*1392 FILLER_0_6_189
*1393 FILLER_0_6_195
*1394 FILLER_0_6_197
*1395 FILLER_0_6_209
*1396 FILLER_0_6_221
*1397 FILLER_0_6_233
*1398 FILLER_0_6_245
*1399 FILLER_0_6_251
*1400 FILLER_0_6_253
*1401 FILLER_0_6_265
*1402 FILLER_0_6_27
*1403 FILLER_0_6_277
*1404 FILLER_0_6_289
*1405 FILLER_0_6_29
*1406 FILLER_0_6_3
*1407 FILLER_0_6_301
*1408 FILLER_0_6_307
*1409 FILLER_0_6_309
*1410 FILLER_0_6_321
*1411 FILLER_0_6_333
*1412 FILLER_0_6_345
*1413 FILLER_0_6_41
*1414 FILLER_0_6_53
*1415 FILLER_0_6_65
*1416 FILLER_0_6_77
*1417 FILLER_0_6_83
*1418 FILLER_0_6_85
*1419 FILLER_0_6_97
*1420 FILLER_0_7_105
*1421 FILLER_0_7_111
*1422 FILLER_0_7_113
*1423 FILLER_0_7_125
*1424 FILLER_0_7_137
*1425 FILLER_0_7_149
*1426 FILLER_0_7_15
*1427 FILLER_0_7_161
*1428 FILLER_0_7_167
*1429 FILLER_0_7_169
*1430 FILLER_0_7_181
*1431 FILLER_0_7_193
*1432 FILLER_0_7_205
*1433 FILLER_0_7_217
*1434 FILLER_0_7_223
*1435 FILLER_0_7_225
*1436 FILLER_0_7_237
*1437 FILLER_0_7_249
*1438 FILLER_0_7_261
*1439 FILLER_0_7_27
*1440 FILLER_0_7_273
*1441 FILLER_0_7_279
*1442 FILLER_0_7_281
*1443 FILLER_0_7_293
*1444 FILLER_0_7_3
*1445 FILLER_0_7_305
*1446 FILLER_0_7_317
*1447 FILLER_0_7_329
*1448 FILLER_0_7_335
*1449 FILLER_0_7_337
*1450 FILLER_0_7_349
*1451 FILLER_0_7_39
*1452 FILLER_0_7_51
*1453 FILLER_0_7_55
*1454 FILLER_0_7_57
*1455 FILLER_0_7_69
*1456 FILLER_0_7_81
*1457 FILLER_0_7_93