*SPEF "ieee 1481-1999"
*DESIGN "tt_um_psychogenic_neptuneproportional"
*DATE "11:11:11 Fri 11 11, 1111"
*VENDOR "OpenRCX"
*PROGRAM "Parallel Extraction"
*VERSION "1.0"
*DESIGN_FLOW "NAME_SCOPE LOCAL" "PIN_CAP NONE"
*DIVIDER /
*DELIMITER :
*BUS_DELIMITER []
*T_UNIT 1 NS
*C_UNIT 1 PF
*R_UNIT 1 OHM
*L_UNIT 1 HENRY

*NAME_MAP
*3 clk
*4 ena
*5 rst_n
*6 ui_in[0]
*7 ui_in[1]
*8 ui_in[2]
*9 ui_in[3]
*10 ui_in[4]
*11 ui_in[5]
*12 ui_in[6]
*13 ui_in[7]
*14 uio_in[0]
*15 uio_in[1]
*16 uio_in[2]
*17 uio_in[3]
*18 uio_in[4]
*19 uio_in[5]
*20 uio_in[6]
*21 uio_in[7]
*22 net8
*23 net9
*24 net10
*25 net11
*26 net12
*27 net13
*28 net14
*29 net15
*30 uio_out[0]
*31 uio_out[1]
*32 uio_out[2]
*33 uio_out[3]
*34 uio_out[4]
*35 uio_out[5]
*36 uio_out[6]
*37 uio_out[7]
*38 uo_out[0]
*39 uo_out[1]
*40 uo_out[2]
*41 uo_out[3]
*42 uo_out[4]
*43 uo_out[5]
*44 uo_out[6]
*45 uo_out[7]
*46 _0000_
*47 _0001_
*48 _0002_
*49 _0003_
*50 _0004_
*51 _0005_
*52 _0006_
*53 _0007_
*54 _0008_
*55 _0009_
*56 _0010_
*57 _0011_
*58 _0012_
*59 _0013_
*60 _0014_
*61 _0015_
*62 _0016_
*63 _0017_
*64 _0018_
*65 _0019_
*66 _0020_
*67 _0021_
*68 _0022_
*69 _0023_
*70 _0024_
*71 _0025_
*72 _0026_
*73 _0027_
*74 _0028_
*75 _0029_
*76 _0030_
*77 _0031_
*78 _0032_
*79 _0033_
*80 _0034_
*81 _0035_
*82 _0036_
*83 _0037_
*84 _0038_
*85 _0039_
*86 _0040_
*87 _0041_
*88 _0042_
*89 _0043_
*90 _0044_
*91 _0045_
*92 _0046_
*93 _0047_
*94 _0048_
*95 _0049_
*96 _0050_
*97 _0051_
*98 _0052_
*99 _0053_
*100 _0054_
*101 _0055_
*102 _0056_
*103 _0057_
*104 _0058_
*105 _0059_
*106 _0060_
*107 _0061_
*108 _0062_
*109 _0063_
*110 _0064_
*111 _0065_
*112 _0066_
*113 _0067_
*114 _0068_
*115 _0069_
*116 _0070_
*117 _0071_
*118 _0072_
*119 _0073_
*120 _0074_
*121 _0075_
*122 _0076_
*123 _0077_
*124 _0078_
*125 _0079_
*126 _0080_
*127 _0081_
*128 _0082_
*129 _0083_
*130 _0084_
*131 _0085_
*132 _0086_
*133 _0087_
*134 _0088_
*135 _0089_
*136 _0090_
*137 _0091_
*138 _0092_
*139 _0093_
*140 _0094_
*141 _0095_
*142 _0096_
*143 _0097_
*144 _0098_
*145 _0099_
*146 _0100_
*147 _0101_
*148 _0102_
*149 _0103_
*150 _0104_
*151 _0105_
*152 _0106_
*153 _0107_
*154 _0108_
*155 _0109_
*156 _0110_
*157 _0111_
*158 _0112_
*159 _0113_
*160 _0114_
*161 _0115_
*162 _0116_
*163 _0117_
*164 _0118_
*165 _0119_
*166 _0120_
*167 _0121_
*168 _0122_
*169 _0123_
*170 _0124_
*171 _0125_
*172 _0126_
*173 _0127_
*174 _0128_
*175 _0129_
*176 _0130_
*177 _0131_
*178 _0132_
*179 _0133_
*180 _0134_
*181 _0135_
*182 _0136_
*183 _0137_
*184 _0138_
*185 _0139_
*186 _0140_
*187 _0141_
*188 _0142_
*189 _0143_
*190 _0144_
*191 _0145_
*192 _0146_
*193 _0147_
*194 _0148_
*195 _0149_
*196 _0150_
*197 _0151_
*198 _0152_
*199 _0153_
*200 _0154_
*201 _0155_
*202 _0156_
*203 _0157_
*204 _0158_
*205 _0159_
*206 _0160_
*207 _0161_
*208 _0162_
*209 _0163_
*210 _0164_
*211 _0165_
*212 _0166_
*213 _0167_
*214 _0168_
*215 _0169_
*216 _0170_
*217 _0171_
*218 _0172_
*219 _0173_
*220 _0174_
*221 _0175_
*222 _0176_
*223 _0177_
*224 _0178_
*225 _0179_
*226 _0180_
*227 _0181_
*228 _0182_
*229 _0183_
*230 _0184_
*231 _0185_
*232 _0186_
*233 _0187_
*234 _0188_
*235 _0189_
*236 _0190_
*237 _0191_
*238 _0192_
*239 _0193_
*240 _0194_
*241 _0195_
*242 _0196_
*243 _0197_
*244 _0198_
*245 _0199_
*246 _0200_
*247 _0201_
*248 _0202_
*249 _0203_
*250 _0204_
*251 _0205_
*252 _0206_
*253 _0207_
*254 _0208_
*255 _0209_
*256 _0210_
*257 _0211_
*258 _0212_
*259 _0213_
*260 _0214_
*261 _0215_
*262 _0216_
*263 _0217_
*264 _0218_
*265 _0219_
*266 _0220_
*267 _0221_
*268 _0222_
*269 _0223_
*270 _0224_
*271 _0225_
*272 _0226_
*273 _0227_
*274 _0228_
*275 _0229_
*276 _0230_
*277 _0231_
*278 _0232_
*279 _0233_
*280 _0234_
*281 _0235_
*282 _0236_
*283 _0237_
*284 _0238_
*285 _0239_
*286 _0240_
*287 _0241_
*288 _0242_
*289 _0243_
*290 _0244_
*291 _0245_
*292 _0246_
*293 _0247_
*294 _0248_
*295 _0249_
*296 _0250_
*297 _0251_
*298 _0252_
*299 _0253_
*300 _0254_
*301 _0255_
*302 _0256_
*303 _0257_
*304 _0258_
*305 _0259_
*306 _0260_
*307 _0261_
*308 _0262_
*309 _0263_
*310 _0264_
*311 _0265_
*312 _0266_
*313 _0267_
*314 _0268_
*315 _0269_
*316 _0270_
*317 _0271_
*318 _0272_
*319 _0273_
*320 _0274_
*321 _0275_
*322 _0276_
*323 _0277_
*324 _0278_
*325 _0279_
*326 _0280_
*327 _0281_
*328 _0282_
*329 _0283_
*330 _0284_
*331 _0285_
*332 _0286_
*333 _0287_
*334 _0288_
*335 _0289_
*336 _0290_
*337 _0291_
*338 _0292_
*339 _0293_
*340 _0294_
*341 _0295_
*342 _0296_
*343 _0297_
*344 _0298_
*345 _0299_
*346 _0300_
*347 _0301_
*348 _0302_
*349 _0303_
*350 _0304_
*351 _0305_
*352 _0306_
*353 _0307_
*354 _0308_
*355 _0309_
*356 _0310_
*357 _0311_
*358 _0312_
*359 _0313_
*360 _0314_
*361 _0315_
*362 _0316_
*363 _0317_
*364 _0318_
*365 _0319_
*366 _0320_
*367 _0321_
*368 _0322_
*369 _0323_
*370 _0324_
*371 _0325_
*372 _0326_
*373 _0327_
*374 _0328_
*375 _0329_
*376 _0330_
*377 _0331_
*378 _0332_
*379 _0333_
*380 _0334_
*381 _0335_
*382 _0336_
*383 _0337_
*384 _0338_
*385 _0339_
*386 _0340_
*387 _0341_
*388 _0342_
*389 _0343_
*390 _0344_
*391 _0345_
*392 _0346_
*393 _0347_
*394 _0348_
*395 _0349_
*396 _0350_
*397 _0351_
*398 _0352_
*399 _0353_
*400 _0354_
*401 _0355_
*402 _0356_
*403 _0357_
*404 _0358_
*405 _0359_
*406 _0360_
*407 _0361_
*408 _0362_
*409 _0363_
*410 _0364_
*411 _0365_
*412 _0366_
*413 _0367_
*414 _0368_
*415 _0369_
*416 _0370_
*417 _0371_
*418 _0372_
*419 _0373_
*420 _0374_
*421 _0375_
*422 _0376_
*423 _0377_
*424 _0378_
*425 _0379_
*426 _0380_
*427 _0381_
*428 _0382_
*429 _0383_
*430 _0384_
*431 _0385_
*432 _0386_
*433 _0387_
*434 _0388_
*435 _0389_
*436 _0390_
*437 _0391_
*438 _0392_
*439 _0393_
*440 _0394_
*441 _0395_
*442 _0396_
*443 _0397_
*444 _0398_
*445 _0399_
*446 _0400_
*447 _0401_
*448 _0402_
*449 _0403_
*450 _0404_
*451 _0405_
*452 _0406_
*453 _0407_
*454 _0408_
*455 _0409_
*456 _0410_
*457 _0411_
*458 _0412_
*459 _0413_
*460 _0414_
*461 _0415_
*462 _0416_
*463 _0417_
*464 _0418_
*465 _0419_
*466 _0420_
*467 _0421_
*468 _0422_
*469 _0423_
*470 _0424_
*471 _0425_
*472 _0426_
*473 _0427_
*474 _0428_
*475 _0429_
*476 _0430_
*477 _0431_
*478 _0432_
*479 _0433_
*480 _0434_
*481 _0435_
*482 _0436_
*483 _0437_
*484 _0438_
*485 _0439_
*486 _0440_
*487 _0441_
*488 _0442_
*489 _0443_
*490 _0444_
*491 _0445_
*492 _0446_
*493 _0447_
*494 _0448_
*495 _0449_
*496 _0450_
*497 _0451_
*498 _0452_
*499 _0453_
*500 _0454_
*501 _0455_
*502 _0456_
*503 _0457_
*504 _0458_
*505 _0459_
*506 _0460_
*507 _0461_
*508 _0462_
*509 _0463_
*510 _0464_
*511 _0465_
*512 _0466_
*513 _0467_
*514 _0468_
*515 _0469_
*516 _0470_
*517 _0471_
*518 _0472_
*519 _0473_
*520 _0474_
*521 _0475_
*522 _0476_
*523 _0477_
*524 _0478_
*525 _0479_
*526 _0480_
*527 _0481_
*528 _0482_
*529 _0483_
*530 _0484_
*531 _0485_
*532 _0486_
*533 _0487_
*534 _0488_
*535 _0489_
*536 _0490_
*537 _0491_
*538 _0492_
*539 _0493_
*540 _0494_
*541 _0495_
*542 _0496_
*543 _0497_
*544 _0498_
*545 _0499_
*546 _0500_
*547 _0501_
*548 _0502_
*549 _0503_
*550 _0504_
*551 _0505_
*552 _0506_
*553 _0507_
*554 _0508_
*555 _0509_
*556 _0510_
*557 _0511_
*558 _0512_
*559 _0513_
*560 _0514_
*561 _0515_
*562 _0516_
*563 _0517_
*564 _0518_
*565 _0519_
*566 _0520_
*567 _0521_
*568 _0522_
*569 _0523_
*570 _0524_
*571 _0525_
*572 _0526_
*573 _0527_
*574 _0528_
*575 _0529_
*576 _0530_
*577 _0531_
*578 _0532_
*579 _0533_
*580 _0534_
*581 _0535_
*582 _0536_
*583 _0537_
*584 _0538_
*585 _0539_
*586 _0540_
*587 _0541_
*588 _0542_
*589 _0543_
*590 _0544_
*591 _0545_
*592 _0546_
*593 _0547_
*594 _0548_
*595 _0549_
*596 _0550_
*597 _0551_
*598 _0552_
*599 _0553_
*600 _0554_
*601 _0555_
*602 _0556_
*603 _0557_
*604 _0558_
*605 _0559_
*606 _0560_
*607 _0561_
*608 _0562_
*609 _0563_
*610 _0564_
*611 _0565_
*612 _0566_
*613 _0567_
*614 _0568_
*615 _0569_
*616 _0570_
*617 _0571_
*618 _0572_
*619 _0573_
*620 _0574_
*621 _0575_
*622 _0576_
*623 _0577_
*624 _0578_
*625 _0579_
*626 _0580_
*627 _0581_
*628 _0582_
*629 _0583_
*630 _0584_
*631 _0585_
*632 _0586_
*633 _0587_
*634 _0588_
*635 _0589_
*636 _0590_
*637 _0591_
*638 _0592_
*639 _0593_
*640 _0594_
*641 _0595_
*642 _0596_
*643 _0597_
*644 _0598_
*645 _0599_
*646 _0600_
*647 _0601_
*648 _0602_
*649 _0603_
*650 _0604_
*651 _0605_
*652 _0606_
*653 _0607_
*654 _0608_
*655 _0609_
*656 _0610_
*657 _0611_
*658 _0612_
*659 _0613_
*660 _0614_
*661 _0615_
*662 _0616_
*663 _0617_
*664 _0618_
*665 _0619_
*666 _0620_
*667 _0621_
*668 _0622_
*669 _0623_
*670 _0624_
*671 _0625_
*672 _0626_
*673 _0627_
*674 _0628_
*675 _0629_
*676 _0630_
*677 _0631_
*678 _0632_
*679 _0633_
*680 _0634_
*681 _0635_
*682 _0636_
*683 _0637_
*684 _0638_
*685 _0639_
*686 _0640_
*687 _0641_
*688 _0642_
*689 _0643_
*690 _0644_
*691 _0645_
*692 _0646_
*693 _0647_
*694 _0648_
*695 _0649_
*696 _0650_
*697 _0651_
*698 _0652_
*699 _0653_
*700 _0654_
*701 _0655_
*702 _0656_
*703 _0657_
*704 _0658_
*705 _0659_
*706 _0660_
*707 _0661_
*708 _0662_
*709 _0663_
*710 _0664_
*711 _0665_
*712 _0666_
*713 _0667_
*714 _0668_
*715 _0669_
*716 _0670_
*717 _0671_
*718 _0672_
*719 _0673_
*720 _0674_
*721 _0675_
*722 _0676_
*723 _0677_
*724 _0678_
*725 _0679_
*726 _0680_
*727 _0681_
*728 _0682_
*729 _0683_
*730 _0684_
*731 _0685_
*732 _0686_
*733 _0687_
*734 _0688_
*735 _0689_
*736 _0690_
*737 _0691_
*738 _0692_
*739 _0693_
*740 _0694_
*741 _0695_
*742 _0696_
*743 _0697_
*744 _0698_
*745 _0699_
*746 _0700_
*747 _0701_
*748 _0702_
*749 _0703_
*750 _0704_
*751 _0705_
*752 _0706_
*753 _0707_
*754 _0708_
*755 _0709_
*756 _0710_
*757 _0711_
*758 _0712_
*759 clknet_0_clk
*760 clknet_4_0_0_clk
*761 clknet_4_10_0_clk
*762 clknet_4_11_0_clk
*763 clknet_4_12_0_clk
*764 clknet_4_13_0_clk
*765 clknet_4_14_0_clk
*766 clknet_4_15_0_clk
*767 clknet_4_1_0_clk
*768 clknet_4_2_0_clk
*769 clknet_4_3_0_clk
*770 clknet_4_4_0_clk
*771 clknet_4_5_0_clk
*772 clknet_4_6_0_clk
*773 clknet_4_7_0_clk
*774 clknet_4_8_0_clk
*775 clknet_4_9_0_clk
*776 displaySegmentsA\[0\]
*777 displaySegmentsA\[1\]
*778 displaySegmentsA\[2\]
*779 displaySegmentsA\[3\]
*780 displaySegmentsA\[4\]
*781 displaySegmentsA\[5\]
*782 displaySegmentsA\[6\]
*783 displaySegmentsA\[7\]
*784 displaySegmentsB\[0\]
*785 displaySegmentsB\[1\]
*786 displaySegmentsB\[2\]
*787 displaySegmentsB\[3\]
*788 displaySegmentsB\[4\]
*789 displaySegmentsB\[5\]
*790 displaySegmentsB\[6\]
*791 displaySegmentsB\[7\]
*792 net1
*793 net16
*794 net17
*795 net18
*796 net19
*797 net2
*798 net20
*799 net21
*800 net22
*801 net23
*802 net24
*803 net25
*804 net26
*805 net27
*806 net28
*807 net29
*808 net3
*809 net30
*810 net31
*811 net32
*812 net33
*813 net34
*814 net35
*815 net36
*816 net37
*817 net38
*818 net39
*819 net4
*820 net40
*821 net41
*822 net42
*823 net43
*824 net44
*825 net45
*826 net46
*827 net47
*828 net48
*829 net49
*830 net5
*831 net50
*832 net51
*833 net52
*834 net53
*835 net54
*836 net55
*837 net56
*838 net57
*839 net58
*840 net59
*841 net6
*842 net60
*843 net61
*844 net62
*845 net63
*846 net64
*847 net65
*848 net66
*849 net7
*850 tuner\.discriminator\.curNoteIndex\[0\]
*851 tuner\.discriminator\.curNoteIndex\[1\]
*852 tuner\.discriminator\.curNoteIndex\[2\]
*853 tuner\.discriminator\.curNoteIndex\[3\]
*854 tuner\.discriminator\.curState\[0\]
*855 tuner\.discriminator\.curState\[1\]
*856 tuner\.discriminator\.curState\[2\]
*857 tuner\.discriminator\.detectionWindowMidPoint\[0\]
*858 tuner\.discriminator\.detectionWindowMidPoint\[1\]
*859 tuner\.discriminator\.detectionWindowMidPoint\[2\]
*860 tuner\.discriminator\.detectionWindowMidPoint\[3\]
*861 tuner\.discriminator\.detectionWindow\[0\]
*862 tuner\.discriminator\.detectionWindow\[1\]
*863 tuner\.discriminator\.detectionWindow\[2\]
*864 tuner\.discriminator\.detectionWindow\[3\]
*865 tuner\.discriminator\.detectionWindow\[4\]
*866 tuner\.discriminator\.inputFreqHigher
*867 tuner\.discriminator\.match_exact
*868 tuner\.discriminator\.match_far
*869 tuner\.discriminator\.match_high
*870 tuner\.discriminator\.noMatchCount\[0\]
*871 tuner\.discriminator\.noMatchCount\[1\]
*872 tuner\.discriminator\.noMatchCount\[2\]
*873 tuner\.discriminator\.noMatchCount\[3\]
*874 tuner\.discriminator\.noMatchCount\[4\]
*875 tuner\.discriminator\.note\[0\]
*876 tuner\.discriminator\.note\[1\]
*877 tuner\.discriminator\.note\[2\]
*878 tuner\.discriminator\.readingProximityResult\[0\]
*879 tuner\.discriminator\.readingProximityResult\[1\]
*880 tuner\.discriminator\.readingProximityResult\[2\]
*881 tuner\.discriminator\.readingProximityResult\[3\]
*882 tuner\.discriminator\.readingProximityResult\[4\]
*883 tuner\.discriminator\.readingProximityResult\[5\]
*884 tuner\.discriminator\.subtractResult\[0\]
*885 tuner\.discriminator\.subtractResult\[1\]
*886 tuner\.discriminator\.subtractResult\[2\]
*887 tuner\.discriminator\.subtractResult\[3\]
*888 tuner\.discriminator\.subtractResult\[4\]
*889 tuner\.discriminator\.subtractResult\[5\]
*890 tuner\.discriminator\.subtractResult\[6\]
*891 tuner\.discriminator\.subtractResult\[7\]
*892 tuner\.discriminator\.subtractResult\[8\]
*893 tuner\.display\.notedisplay\.segments\[1\]
*894 tuner\.display\.notedisplay\.segments\[2\]
*895 tuner\.display\.notedisplay\.segments\[3\]
*896 tuner\.display\.notedisplay\.segments\[4\]
*897 tuner\.display\.notedisplay\.segments\[5\]
*898 tuner\.display\.notedisplay\.segments\[6\]
*899 tuner\.display\.notedisplay\.segments\[7\]
*900 tuner\.display\.notedisplay_value\[0\]
*901 tuner\.display\.notedisplay_value\[1\]
*902 tuner\.display\.notedisplay_value\[2\]
*903 tuner\.display\.proxdisplay\.segments\[0\]
*904 tuner\.display\.proxdisplay\.segments\[1\]
*905 tuner\.display\.proxdisplay\.segments\[2\]
*906 tuner\.display\.proxdisplay\.segments\[3\]
*907 tuner\.display\.proxdisplay\.segments\[4\]
*908 tuner\.display\.proxdisplay\.segments\[7\]
*909 tuner\.display\.proxdisplay_value\[0\]
*910 tuner\.display\.proxdisplay_value\[1\]
*911 tuner\.display\.proxdisplay_value\[2\]
*912 tuner\.display\.proximitySelect
*913 tuner\.display\.segments\[0\]
*914 tuner\.display\.segments\[1\]
*915 tuner\.display\.segments\[2\]
*916 tuner\.display\.segments\[3\]
*917 tuner\.display\.segments\[4\]
*918 tuner\.display\.segments\[5\]
*919 tuner\.display\.segments\[6\]
*920 tuner\.display\.segments\[7\]
*921 tuner\.pulsecounter\.clockCount\[0\]
*922 tuner\.pulsecounter\.clockCount\[10\]
*923 tuner\.pulsecounter\.clockCount\[11\]
*924 tuner\.pulsecounter\.clockCount\[12\]
*925 tuner\.pulsecounter\.clockCount\[13\]
*926 tuner\.pulsecounter\.clockCount\[14\]
*927 tuner\.pulsecounter\.clockCount\[1\]
*928 tuner\.pulsecounter\.clockCount\[2\]
*929 tuner\.pulsecounter\.clockCount\[3\]
*930 tuner\.pulsecounter\.clockCount\[4\]
*931 tuner\.pulsecounter\.clockCount\[5\]
*932 tuner\.pulsecounter\.clockCount\[6\]
*933 tuner\.pulsecounter\.clockCount\[7\]
*934 tuner\.pulsecounter\.clockCount\[8\]
*935 tuner\.pulsecounter\.clockCount\[9\]
*936 tuner\.pulsecounter\.edge_detect\.ffsync\.stage0
*937 tuner\.pulsecounter\.edge_detect\.ffsync\.stage1
*938 tuner\.pulsecounter\.edge_detect\.output
*939 tuner\.pulsecounter\.edge_detect\.seenRising
*940 tuner\.pulsecounter\.runningPulseCount\[0\]
*941 tuner\.pulsecounter\.runningPulseCount\[1\]
*942 tuner\.pulsecounter\.runningPulseCount\[2\]
*943 tuner\.pulsecounter\.runningPulseCount\[3\]
*944 tuner\.pulsecounter\.runningPulseCount\[4\]
*945 tuner\.pulsecounter\.runningPulseCount\[5\]
*946 tuner\.pulsecounter\.runningPulseCount\[6\]
*947 tuner\.pulsecounter\.runningPulseCount\[7\]
*948 tuner\.pulsecounter\.singlePeriodClockCount\[0\]
*949 tuner\.pulsecounter\.singlePeriodClockCount\[10\]
*950 tuner\.pulsecounter\.singlePeriodClockCount\[11\]
*951 tuner\.pulsecounter\.singlePeriodClockCount\[12\]
*952 tuner\.pulsecounter\.singlePeriodClockCount\[13\]
*953 tuner\.pulsecounter\.singlePeriodClockCount\[14\]
*954 tuner\.pulsecounter\.singlePeriodClockCount\[2\]
*955 tuner\.pulsecounter\.singlePeriodClockCount\[3\]
*956 tuner\.pulsecounter\.singlePeriodClockCount\[4\]
*957 tuner\.pulsecounter\.singlePeriodClockCount\[5\]
*958 tuner\.pulsecounter\.singlePeriodClockCount\[6\]
*959 tuner\.pulsecounter\.singlePeriodClockCount\[7\]
*960 tuner\.pulsecounter\.singlePeriodClockCount\[8\]
*961 tuner\.pulsecounter\.singlePeriodClockCount\[9\]
*962 FILLER_0_0_109
*963 FILLER_0_0_113
*964 FILLER_0_0_125
*965 FILLER_0_0_137
*966 FILLER_0_0_141
*967 FILLER_0_0_15
*968 FILLER_0_0_153
*969 FILLER_0_0_165
*970 FILLER_0_0_169
*971 FILLER_0_0_181
*972 FILLER_0_0_193
*973 FILLER_0_0_197
*974 FILLER_0_0_209
*975 FILLER_0_0_221
*976 FILLER_0_0_225
*977 FILLER_0_0_237
*978 FILLER_0_0_249
*979 FILLER_0_0_253
*980 FILLER_0_0_265
*981 FILLER_0_0_27
*982 FILLER_0_0_277
*983 FILLER_0_0_281
*984 FILLER_0_0_29
*985 FILLER_0_0_293
*986 FILLER_0_0_3
*987 FILLER_0_0_305
*988 FILLER_0_0_309
*989 FILLER_0_0_321
*990 FILLER_0_0_333
*991 FILLER_0_0_337
*992 FILLER_0_0_349
*993 FILLER_0_0_41
*994 FILLER_0_0_53
*995 FILLER_0_0_57
*996 FILLER_0_0_69
*997 FILLER_0_0_81
*998 FILLER_0_0_85
*999 FILLER_0_0_97
*1000 FILLER_0_10_110
*1001 FILLER_0_10_132
*1002 FILLER_0_10_141
*1003 FILLER_0_10_148
*1004 FILLER_0_10_15
*1005 FILLER_0_10_189
*1006 FILLER_0_10_207
*1007 FILLER_0_10_22
*1008 FILLER_0_10_220
*1009 FILLER_0_10_232
*1010 FILLER_0_10_244
*1011 FILLER_0_10_253
*1012 FILLER_0_10_265
*1013 FILLER_0_10_273
*1014 FILLER_0_10_287
*1015 FILLER_0_10_29
*1016 FILLER_0_10_296
*1017 FILLER_0_10_3
*1018 FILLER_0_10_309
*1019 FILLER_0_10_321
*1020 FILLER_0_10_333
*1021 FILLER_0_10_37
*1022 FILLER_0_10_47
*1023 FILLER_0_10_55
*1024 FILLER_0_10_65
*1025 FILLER_0_10_77
*1026 FILLER_0_10_83
*1027 FILLER_0_10_85
*1028 FILLER_0_10_97
*1029 FILLER_0_11_105
*1030 FILLER_0_11_111
*1031 FILLER_0_11_113
*1032 FILLER_0_11_133
*1033 FILLER_0_11_145
*1034 FILLER_0_11_155
*1035 FILLER_0_11_167
*1036 FILLER_0_11_177
*1037 FILLER_0_11_189
*1038 FILLER_0_11_201
*1039 FILLER_0_11_205
*1040 FILLER_0_11_220
*1041 FILLER_0_11_225
*1042 FILLER_0_11_247
*1043 FILLER_0_11_26
*1044 FILLER_0_11_263
*1045 FILLER_0_11_269
*1046 FILLER_0_11_284
*1047 FILLER_0_11_3
*1048 FILLER_0_11_301
*1049 FILLER_0_11_305
*1050 FILLER_0_11_322
*1051 FILLER_0_11_328
*1052 FILLER_0_11_333
*1053 FILLER_0_11_34
*1054 FILLER_0_11_341
*1055 FILLER_0_11_46
*1056 FILLER_0_11_50
*1057 FILLER_0_11_54
*1058 FILLER_0_11_57
*1059 FILLER_0_11_7
*1060 FILLER_0_11_70
*1061 FILLER_0_11_90
*1062 FILLER_0_12_101
*1063 FILLER_0_12_118
*1064 FILLER_0_12_128
*1065 FILLER_0_12_15
*1066 FILLER_0_12_157
*1067 FILLER_0_12_168
*1068 FILLER_0_12_194
*1069 FILLER_0_12_197
*1070 FILLER_0_12_209
*1071 FILLER_0_12_228
*1072 FILLER_0_12_240
*1073 FILLER_0_12_251
*1074 FILLER_0_12_253
*1075 FILLER_0_12_262
*1076 FILLER_0_12_266
*1077 FILLER_0_12_27
*1078 FILLER_0_12_278
*1079 FILLER_0_12_29
*1080 FILLER_0_12_291
*1081 FILLER_0_12_3
*1082 FILLER_0_12_303
*1083 FILLER_0_12_307
*1084 FILLER_0_12_309
*1085 FILLER_0_12_319
*1086 FILLER_0_12_331
*1087 FILLER_0_12_71
*1088 FILLER_0_12_79
*1089 FILLER_0_12_83
*1090 FILLER_0_12_85
*1091 FILLER_0_12_91
*1092 FILLER_0_13_100
*1093 FILLER_0_13_106
*1094 FILLER_0_13_111
*1095 FILLER_0_13_113
*1096 FILLER_0_13_121
*1097 FILLER_0_13_133
*1098 FILLER_0_13_141
*1099 FILLER_0_13_148
*1100 FILLER_0_13_156
*1101 FILLER_0_13_166
*1102 FILLER_0_13_169
*1103 FILLER_0_13_173
*1104 FILLER_0_13_184
*1105 FILLER_0_13_190
*1106 FILLER_0_13_194
*1107 FILLER_0_13_225
*1108 FILLER_0_13_254
*1109 FILLER_0_13_28
*1110 FILLER_0_13_281
*1111 FILLER_0_13_305
*1112 FILLER_0_13_309
*1113 FILLER_0_13_323
*1114 FILLER_0_13_340
*1115 FILLER_0_13_348
*1116 FILLER_0_13_45
*1117 FILLER_0_13_55
*1118 FILLER_0_13_71
*1119 FILLER_0_13_77
*1120 FILLER_0_13_84
*1121 FILLER_0_13_88
*1122 FILLER_0_14_113
*1123 FILLER_0_14_121
*1124 FILLER_0_14_136
*1125 FILLER_0_14_157
*1126 FILLER_0_14_167
*1127 FILLER_0_14_171
*1128 FILLER_0_14_177
*1129 FILLER_0_14_181
*1130 FILLER_0_14_189
*1131 FILLER_0_14_195
*1132 FILLER_0_14_206
*1133 FILLER_0_14_225
*1134 FILLER_0_14_23
*1135 FILLER_0_14_232
*1136 FILLER_0_14_250
*1137 FILLER_0_14_261
*1138 FILLER_0_14_269
*1139 FILLER_0_14_27
*1140 FILLER_0_14_278
*1141 FILLER_0_14_29
*1142 FILLER_0_14_290
*1143 FILLER_0_14_3
*1144 FILLER_0_14_302
*1145 FILLER_0_14_326
*1146 FILLER_0_14_332
*1147 FILLER_0_14_342
*1148 FILLER_0_14_350
*1149 FILLER_0_14_49
*1150 FILLER_0_14_83
*1151 FILLER_0_15_113
*1152 FILLER_0_15_117
*1153 FILLER_0_15_139
*1154 FILLER_0_15_151
*1155 FILLER_0_15_155
*1156 FILLER_0_15_159
*1157 FILLER_0_15_169
*1158 FILLER_0_15_187
*1159 FILLER_0_15_193
*1160 FILLER_0_15_225
*1161 FILLER_0_15_253
*1162 FILLER_0_15_268
*1163 FILLER_0_15_286
*1164 FILLER_0_15_294
*1165 FILLER_0_15_3
*1166 FILLER_0_15_307
*1167 FILLER_0_15_31
*1168 FILLER_0_15_322
*1169 FILLER_0_15_335
*1170 FILLER_0_15_349
*1171 FILLER_0_15_40
*1172 FILLER_0_15_51
*1173 FILLER_0_15_55
*1174 FILLER_0_15_84
*1175 FILLER_0_16_107
*1176 FILLER_0_16_114
*1177 FILLER_0_16_126
*1178 FILLER_0_16_138
*1179 FILLER_0_16_141
*1180 FILLER_0_16_155
*1181 FILLER_0_16_167
*1182 FILLER_0_16_180
*1183 FILLER_0_16_19
*1184 FILLER_0_16_195
*1185 FILLER_0_16_197
*1186 FILLER_0_16_205
*1187 FILLER_0_16_212
*1188 FILLER_0_16_221
*1189 FILLER_0_16_232
*1190 FILLER_0_16_240
*1191 FILLER_0_16_250
*1192 FILLER_0_16_253
*1193 FILLER_0_16_261
*1194 FILLER_0_16_276
*1195 FILLER_0_16_280
*1196 FILLER_0_16_29
*1197 FILLER_0_16_293
*1198 FILLER_0_16_305
*1199 FILLER_0_16_320
*1200 FILLER_0_16_33
*1201 FILLER_0_16_341
*1202 FILLER_0_16_348
*1203 FILLER_0_16_50
*1204 FILLER_0_16_54
*1205 FILLER_0_16_81
*1206 FILLER_0_16_85
*1207 FILLER_0_17_110
*1208 FILLER_0_17_113
*1209 FILLER_0_17_140
*1210 FILLER_0_17_15
*1211 FILLER_0_17_167
*1212 FILLER_0_17_178
*1213 FILLER_0_17_19
*1214 FILLER_0_17_191
*1215 FILLER_0_17_202
*1216 FILLER_0_17_214
*1217 FILLER_0_17_222
*1218 FILLER_0_17_225
*1219 FILLER_0_17_254
*1220 FILLER_0_17_262
*1221 FILLER_0_17_273
*1222 FILLER_0_17_279
*1223 FILLER_0_17_281
*1224 FILLER_0_17_296
*1225 FILLER_0_17_3
*1226 FILLER_0_17_31
*1227 FILLER_0_17_315
*1228 FILLER_0_17_323
*1229 FILLER_0_17_335
*1230 FILLER_0_17_337
*1231 FILLER_0_17_349
*1232 FILLER_0_17_57
*1233 FILLER_0_17_69
*1234 FILLER_0_17_77
*1235 FILLER_0_17_93
*1236 FILLER_0_17_99
*1237 FILLER_0_18_117
*1238 FILLER_0_18_124
*1239 FILLER_0_18_132
*1240 FILLER_0_18_15
*1241 FILLER_0_18_150
*1242 FILLER_0_18_162
*1243 FILLER_0_18_174
*1244 FILLER_0_18_186
*1245 FILLER_0_18_194
*1246 FILLER_0_18_202
*1247 FILLER_0_18_223
*1248 FILLER_0_18_235
*1249 FILLER_0_18_258
*1250 FILLER_0_18_26
*1251 FILLER_0_18_280
*1252 FILLER_0_18_29
*1253 FILLER_0_18_292
*1254 FILLER_0_18_3
*1255 FILLER_0_18_300
*1256 FILLER_0_18_315
*1257 FILLER_0_18_334
*1258 FILLER_0_18_46
*1259 FILLER_0_18_57
*1260 FILLER_0_18_77
*1261 FILLER_0_18_83
*1262 FILLER_0_18_85
*1263 FILLER_0_18_99
*1264 FILLER_0_19_10
*1265 FILLER_0_19_104
*1266 FILLER_0_19_110
*1267 FILLER_0_19_113
*1268 FILLER_0_19_127
*1269 FILLER_0_19_18
*1270 FILLER_0_19_195
*1271 FILLER_0_19_202
*1272 FILLER_0_19_214
*1273 FILLER_0_19_220
*1274 FILLER_0_19_225
*1275 FILLER_0_19_233
*1276 FILLER_0_19_245
*1277 FILLER_0_19_257
*1278 FILLER_0_19_26
*1279 FILLER_0_19_274
*1280 FILLER_0_19_281
*1281 FILLER_0_19_299
*1282 FILLER_0_19_311
*1283 FILLER_0_19_315
*1284 FILLER_0_19_332
*1285 FILLER_0_19_340
*1286 FILLER_0_19_348
*1287 FILLER_0_19_44
*1288 FILLER_0_19_57
*1289 FILLER_0_19_69
*1290 FILLER_0_19_82
*1291 FILLER_0_19_96
*1292 FILLER_0_1_105
*1293 FILLER_0_1_111
*1294 FILLER_0_1_113
*1295 FILLER_0_1_125
*1296 FILLER_0_1_137
*1297 FILLER_0_1_149
*1298 FILLER_0_1_15
*1299 FILLER_0_1_161
*1300 FILLER_0_1_167
*1301 FILLER_0_1_169
*1302 FILLER_0_1_181
*1303 FILLER_0_1_193
*1304 FILLER_0_1_205
*1305 FILLER_0_1_217
*1306 FILLER_0_1_223
*1307 FILLER_0_1_225
*1308 FILLER_0_1_237
*1309 FILLER_0_1_249
*1310 FILLER_0_1_261
*1311 FILLER_0_1_27
*1312 FILLER_0_1_273
*1313 FILLER_0_1_279
*1314 FILLER_0_1_281
*1315 FILLER_0_1_293
*1316 FILLER_0_1_3
*1317 FILLER_0_1_305
*1318 FILLER_0_1_317
*1319 FILLER_0_1_329
*1320 FILLER_0_1_335
*1321 FILLER_0_1_337
*1322 FILLER_0_1_349
*1323 FILLER_0_1_39
*1324 FILLER_0_1_51
*1325 FILLER_0_1_55
*1326 FILLER_0_1_57
*1327 FILLER_0_1_69
*1328 FILLER_0_1_81
*1329 FILLER_0_1_93
*1330 FILLER_0_20_107
*1331 FILLER_0_20_11
*1332 FILLER_0_20_115
*1333 FILLER_0_20_131
*1334 FILLER_0_20_135
*1335 FILLER_0_20_158
*1336 FILLER_0_20_162
*1337 FILLER_0_20_185
*1338 FILLER_0_20_192
*1339 FILLER_0_20_197
*1340 FILLER_0_20_21
*1341 FILLER_0_20_218
*1342 FILLER_0_20_222
*1343 FILLER_0_20_239
*1344 FILLER_0_20_249
*1345 FILLER_0_20_258
*1346 FILLER_0_20_262
*1347 FILLER_0_20_282
*1348 FILLER_0_20_29
*1349 FILLER_0_20_290
*1350 FILLER_0_20_295
*1351 FILLER_0_20_3
*1352 FILLER_0_20_307
*1353 FILLER_0_20_309
*1354 FILLER_0_20_317
*1355 FILLER_0_20_325
*1356 FILLER_0_20_349
*1357 FILLER_0_20_37
*1358 FILLER_0_20_44
*1359 FILLER_0_20_48
*1360 FILLER_0_20_59
*1361 FILLER_0_20_66
*1362 FILLER_0_20_78
*1363 FILLER_0_20_82
*1364 FILLER_0_20_88
*1365 FILLER_0_20_98
*1366 FILLER_0_21_105
*1367 FILLER_0_21_111
*1368 FILLER_0_21_113
*1369 FILLER_0_21_117
*1370 FILLER_0_21_129
*1371 FILLER_0_21_135
*1372 FILLER_0_21_141
*1373 FILLER_0_21_149
*1374 FILLER_0_21_169
*1375 FILLER_0_21_213
*1376 FILLER_0_21_219
*1377 FILLER_0_21_223
*1378 FILLER_0_21_228
*1379 FILLER_0_21_24
*1380 FILLER_0_21_240
*1381 FILLER_0_21_246
*1382 FILLER_0_21_263
*1383 FILLER_0_21_267
*1384 FILLER_0_21_271
*1385 FILLER_0_21_279
*1386 FILLER_0_21_281
*1387 FILLER_0_21_292
*1388 FILLER_0_21_3
*1389 FILLER_0_21_320
*1390 FILLER_0_21_329
*1391 FILLER_0_21_335
*1392 FILLER_0_21_337
*1393 FILLER_0_21_349
*1394 FILLER_0_21_41
*1395 FILLER_0_21_57
*1396 FILLER_0_21_79
*1397 FILLER_0_21_91
*1398 FILLER_0_22_103
*1399 FILLER_0_22_111
*1400 FILLER_0_22_118
*1401 FILLER_0_22_128
*1402 FILLER_0_22_139
*1403 FILLER_0_22_141
*1404 FILLER_0_22_15
*1405 FILLER_0_22_153
*1406 FILLER_0_22_165
*1407 FILLER_0_22_187
*1408 FILLER_0_22_195
*1409 FILLER_0_22_205
*1410 FILLER_0_22_21
*1411 FILLER_0_22_212
*1412 FILLER_0_22_224
*1413 FILLER_0_22_228
*1414 FILLER_0_22_245
*1415 FILLER_0_22_251
*1416 FILLER_0_22_256
*1417 FILLER_0_22_260
*1418 FILLER_0_22_27
*1419 FILLER_0_22_285
*1420 FILLER_0_22_29
*1421 FILLER_0_22_293
*1422 FILLER_0_22_3
*1423 FILLER_0_22_301
*1424 FILLER_0_22_307
*1425 FILLER_0_22_309
*1426 FILLER_0_22_313
*1427 FILLER_0_22_319
*1428 FILLER_0_22_336
*1429 FILLER_0_22_348
*1430 FILLER_0_22_38
*1431 FILLER_0_22_50
*1432 FILLER_0_22_62
*1433 FILLER_0_22_7
*1434 FILLER_0_22_74
*1435 FILLER_0_22_78
*1436 FILLER_0_22_82
*1437 FILLER_0_22_96
*1438 FILLER_0_23_104
*1439 FILLER_0_23_117
*1440 FILLER_0_23_132
*1441 FILLER_0_23_138
*1442 FILLER_0_23_142
*1443 FILLER_0_23_15
*1444 FILLER_0_23_161
*1445 FILLER_0_23_167
*1446 FILLER_0_23_169
*1447 FILLER_0_23_185
*1448 FILLER_0_23_225
*1449 FILLER_0_23_23
*1450 FILLER_0_23_237
*1451 FILLER_0_23_241
*1452 FILLER_0_23_264
*1453 FILLER_0_23_275
*1454 FILLER_0_23_279
*1455 FILLER_0_23_284
*1456 FILLER_0_23_288
*1457 FILLER_0_23_3
*1458 FILLER_0_23_311
*1459 FILLER_0_23_322
*1460 FILLER_0_23_330
*1461 FILLER_0_23_335
*1462 FILLER_0_23_337
*1463 FILLER_0_23_348
*1464 FILLER_0_23_39
*1465 FILLER_0_23_47
*1466 FILLER_0_23_57
*1467 FILLER_0_23_61
*1468 FILLER_0_23_69
*1469 FILLER_0_23_80
*1470 FILLER_0_23_88
*1471 FILLER_0_24_104
*1472 FILLER_0_24_116
*1473 FILLER_0_24_149
*1474 FILLER_0_24_157
*1475 FILLER_0_24_164
*1476 FILLER_0_24_168
*1477 FILLER_0_24_182
*1478 FILLER_0_24_194
*1479 FILLER_0_24_223
*1480 FILLER_0_24_23
*1481 FILLER_0_24_232
*1482 FILLER_0_24_240
*1483 FILLER_0_24_250
*1484 FILLER_0_24_259
*1485 FILLER_0_24_27
*1486 FILLER_0_24_29
*1487 FILLER_0_24_292
*1488 FILLER_0_24_298
*1489 FILLER_0_24_3
*1490 FILLER_0_24_306
*1491 FILLER_0_24_309
*1492 FILLER_0_24_313
*1493 FILLER_0_24_330
*1494 FILLER_0_24_350
*1495 FILLER_0_24_44
*1496 FILLER_0_24_55
*1497 FILLER_0_24_63
*1498 FILLER_0_24_82
*1499 FILLER_0_24_85
*1500 FILLER_0_24_92
*1501 FILLER_0_25_106
*1502 FILLER_0_25_121
*1503 FILLER_0_25_130
*1504 FILLER_0_25_142
*1505 FILLER_0_25_15
*1506 FILLER_0_25_150
*1507 FILLER_0_25_165
*1508 FILLER_0_25_172
*1509 FILLER_0_25_184
*1510 FILLER_0_25_205
*1511 FILLER_0_25_223
*1512 FILLER_0_25_23
*1513 FILLER_0_25_233
*1514 FILLER_0_25_250
*1515 FILLER_0_25_267
*1516 FILLER_0_25_277
*1517 FILLER_0_25_287
*1518 FILLER_0_25_294
*1519 FILLER_0_25_3
*1520 FILLER_0_25_31
*1521 FILLER_0_25_311
*1522 FILLER_0_25_317
*1523 FILLER_0_25_321
*1524 FILLER_0_25_333
*1525 FILLER_0_25_337
*1526 FILLER_0_25_349
*1527 FILLER_0_25_46
*1528 FILLER_0_25_52
*1529 FILLER_0_25_60
*1530 FILLER_0_25_79
*1531 FILLER_0_25_91
*1532 FILLER_0_26_111
*1533 FILLER_0_26_122
*1534 FILLER_0_26_128
*1535 FILLER_0_26_133
*1536 FILLER_0_26_139
*1537 FILLER_0_26_141
*1538 FILLER_0_26_149
*1539 FILLER_0_26_154
*1540 FILLER_0_26_165
*1541 FILLER_0_26_177
*1542 FILLER_0_26_19
*1543 FILLER_0_26_193
*1544 FILLER_0_26_197
*1545 FILLER_0_26_205
*1546 FILLER_0_26_209
*1547 FILLER_0_26_221
*1548 FILLER_0_26_237
*1549 FILLER_0_26_243
*1550 FILLER_0_26_261
*1551 FILLER_0_26_27
*1552 FILLER_0_26_289
*1553 FILLER_0_26_297
*1554 FILLER_0_26_3
*1555 FILLER_0_26_306
*1556 FILLER_0_26_309
*1557 FILLER_0_26_331
*1558 FILLER_0_26_349
*1559 FILLER_0_26_46
*1560 FILLER_0_26_59
*1561 FILLER_0_26_93
*1562 FILLER_0_27_100
*1563 FILLER_0_27_111
*1564 FILLER_0_27_113
*1565 FILLER_0_27_127
*1566 FILLER_0_27_138
*1567 FILLER_0_27_146
*1568 FILLER_0_27_165
*1569 FILLER_0_27_169
*1570 FILLER_0_27_175
*1571 FILLER_0_27_217
*1572 FILLER_0_27_22
*1573 FILLER_0_27_223
*1574 FILLER_0_27_225
*1575 FILLER_0_27_237
*1576 FILLER_0_27_247
*1577 FILLER_0_27_266
*1578 FILLER_0_27_276
*1579 FILLER_0_27_281
*1580 FILLER_0_27_293
*1581 FILLER_0_27_3
*1582 FILLER_0_27_307
*1583 FILLER_0_27_313
*1584 FILLER_0_27_317
*1585 FILLER_0_27_321
*1586 FILLER_0_27_332
*1587 FILLER_0_27_337
*1588 FILLER_0_27_349
*1589 FILLER_0_27_35
*1590 FILLER_0_27_46
*1591 FILLER_0_27_54
*1592 FILLER_0_27_57
*1593 FILLER_0_27_69
*1594 FILLER_0_27_76
*1595 FILLER_0_27_88
*1596 FILLER_0_27_9
*1597 FILLER_0_28_103
*1598 FILLER_0_28_111
*1599 FILLER_0_28_119
*1600 FILLER_0_28_127
*1601 FILLER_0_28_135
*1602 FILLER_0_28_139
*1603 FILLER_0_28_141
*1604 FILLER_0_28_149
*1605 FILLER_0_28_157
*1606 FILLER_0_28_169
*1607 FILLER_0_28_176
*1608 FILLER_0_28_185
*1609 FILLER_0_28_195
*1610 FILLER_0_28_197