*SPEF "ieee 1481-1999"
*DESIGN "tt_um_yubex_metastability_experiment"
*DATE "11:11:11 Fri 11 11, 1111"
*VENDOR "OpenRCX"
*PROGRAM "Parallel Extraction"
*VERSION "1.0"
*DESIGN_FLOW "NAME_SCOPE LOCAL" "PIN_CAP NONE"
*DIVIDER /
*DELIMITER :
*BUS_DELIMITER []
*T_UNIT 1 NS
*C_UNIT 1 PF
*R_UNIT 1 OHM
*L_UNIT 1 HENRY

*NAME_MAP
*3 clk
*4 ena
*5 rst_n
*6 ui_in[0]
*7 ui_in[1]
*8 ui_in[2]
*9 ui_in[3]
*10 ui_in[4]
*11 ui_in[5]
*12 ui_in[6]
*13 ui_in[7]
*14 uio_in[0]
*15 uio_in[1]
*16 uio_in[2]
*17 uio_in[3]
*18 uio_in[4]
*19 uio_in[5]
*20 uio_in[6]
*21 uio_in[7]
*22 net25
*23 net26
*24 net27
*25 net28
*26 net29
*27 net30
*28 net31
*29 net32
*30 net33
*31 net34
*32 net35
*33 net36
*34 net37
*35 net38
*36 net39
*37 net40
*38 uo_out[0]
*39 uo_out[1]
*40 uo_out[2]
*41 uo_out[3]
*42 uo_out[4]
*43 uo_out[5]
*44 uo_out[6]
*45 uo_out[7]
*46 _000_
*47 _001_
*48 _002_
*49 _003_
*50 _004_
*51 _005_
*52 _006_
*53 _007_
*54 _008_
*55 _009_
*56 _010_
*57 _011_
*58 _012_
*59 _013_
*60 _014_
*61 _015_
*62 _016_
*63 _017_
*64 _018_
*65 _019_
*66 _020_
*67 _021_
*68 _022_
*69 _023_
*70 _024_
*71 _025_
*72 _026_
*73 _027_
*74 clknet_0_clk
*75 clknet_2_0__leaf_clk
*76 clknet_2_1__leaf_clk
*77 clknet_2_2__leaf_clk
*78 clknet_2_3__leaf_clk
*79 delayed_toggle_dff
*80 meta_dff_0
*81 meta_dff_1
*82 meta_err_detected
*83 net1
*84 net10
*85 net11
*86 net12
*87 net13
*88 net14
*89 net15
*90 net16
*91 net17
*92 net18
*93 net19
*94 net2
*95 net20
*96 net21
*97 net22
*98 net23
*99 net24
*100 net3
*101 net4
*102 net41
*103 net42
*104 net43
*105 net44
*106 net45
*107 net46
*108 net47
*109 net48
*110 net49
*111 net5
*112 net50
*113 net51
*114 net52
*115 net53
*116 net54
*117 net55
*118 net56
*119 net57
*120 net58
*121 net59
*122 net6
*123 net60
*124 net61
*125 net62
*126 net63
*127 net64
*128 net65
*129 net66
*130 net67
*131 net68
*132 net69
*133 net7
*134 net70
*135 net71
*136 net72
*137 net73
*138 net74
*139 net75
*140 net76
*141 net77
*142 net78
*143 net8
*144 net9
*145 prog_delay\[0\]
*146 prog_delay\[100\]
*147 prog_delay\[101\]
*148 prog_delay\[102\]
*149 prog_delay\[103\]
*150 prog_delay\[104\]
*151 prog_delay\[105\]
*152 prog_delay\[106\]
*153 prog_delay\[107\]
*154 prog_delay\[108\]
*155 prog_delay\[109\]
*156 prog_delay\[10\]
*157 prog_delay\[110\]
*158 prog_delay\[111\]
*159 prog_delay\[112\]
*160 prog_delay\[113\]
*161 prog_delay\[114\]
*162 prog_delay\[115\]
*163 prog_delay\[116\]
*164 prog_delay\[117\]
*165 prog_delay\[118\]
*166 prog_delay\[119\]
*167 prog_delay\[11\]
*168 prog_delay\[120\]
*169 prog_delay\[121\]
*170 prog_delay\[122\]
*171 prog_delay\[123\]
*172 prog_delay\[124\]
*173 prog_delay\[125\]
*174 prog_delay\[126\]
*175 prog_delay\[127\]
*176 prog_delay\[128\]
*177 prog_delay\[12\]
*178 prog_delay\[13\]
*179 prog_delay\[14\]
*180 prog_delay\[15\]
*181 prog_delay\[16\]
*182 prog_delay\[17\]
*183 prog_delay\[18\]
*184 prog_delay\[19\]
*185 prog_delay\[1\]
*186 prog_delay\[20\]
*187 prog_delay\[21\]
*188 prog_delay\[22\]
*189 prog_delay\[23\]
*190 prog_delay\[24\]
*191 prog_delay\[25\]
*192 prog_delay\[26\]
*193 prog_delay\[27\]
*194 prog_delay\[28\]
*195 prog_delay\[29\]
*196 prog_delay\[2\]
*197 prog_delay\[30\]
*198 prog_delay\[31\]
*199 prog_delay\[32\]
*200 prog_delay\[33\]
*201 prog_delay\[34\]
*202 prog_delay\[35\]
*203 prog_delay\[36\]
*204 prog_delay\[37\]
*205 prog_delay\[38\]
*206 prog_delay\[39\]
*207 prog_delay\[3\]
*208 prog_delay\[40\]
*209 prog_delay\[41\]
*210 prog_delay\[42\]
*211 prog_delay\[43\]
*212 prog_delay\[44\]
*213 prog_delay\[45\]
*214 prog_delay\[46\]
*215 prog_delay\[47\]
*216 prog_delay\[48\]
*217 prog_delay\[49\]
*218 prog_delay\[4\]
*219 prog_delay\[50\]
*220 prog_delay\[51\]
*221 prog_delay\[52\]
*222 prog_delay\[53\]
*223 prog_delay\[54\]
*224 prog_delay\[55\]
*225 prog_delay\[56\]
*226 prog_delay\[57\]
*227 prog_delay\[58\]
*228 prog_delay\[59\]
*229 prog_delay\[5\]
*230 prog_delay\[60\]
*231 prog_delay\[61\]
*232 prog_delay\[62\]
*233 prog_delay\[63\]
*234 prog_delay\[64\]
*235 prog_delay\[65\]
*236 prog_delay\[66\]
*237 prog_delay\[67\]
*238 prog_delay\[68\]
*239 prog_delay\[69\]
*240 prog_delay\[6\]
*241 prog_delay\[70\]
*242 prog_delay\[71\]
*243 prog_delay\[72\]
*244 prog_delay\[73\]
*245 prog_delay\[74\]
*246 prog_delay\[75\]
*247 prog_delay\[76\]
*248 prog_delay\[77\]
*249 prog_delay\[78\]
*250 prog_delay\[79\]
*251 prog_delay\[7\]
*252 prog_delay\[80\]
*253 prog_delay\[81\]
*254 prog_delay\[82\]
*255 prog_delay\[83\]
*256 prog_delay\[84\]
*257 prog_delay\[85\]
*258 prog_delay\[86\]
*259 prog_delay\[87\]
*260 prog_delay\[88\]
*261 prog_delay\[89\]
*262 prog_delay\[8\]
*263 prog_delay\[90\]
*264 prog_delay\[91\]
*265 prog_delay\[92\]
*266 prog_delay\[93\]
*267 prog_delay\[94\]
*268 prog_delay\[95\]
*269 prog_delay\[96\]
*270 prog_delay\[97\]
*271 prog_delay\[98\]
*272 prog_delay\[99\]
*273 prog_delay\[9\]
*274 toggle_dff_en
*275 toggle_dff_en_1t
*276 toggle_dff_en_2t
*277 toggle_dff_en_3t
*278 trigger_sr\[0\]
*279 trigger_sr\[10\]
*280 trigger_sr\[11\]
*281 trigger_sr\[12\]
*282 trigger_sr\[13\]
*283 trigger_sr\[14\]
*284 trigger_sr\[15\]
*285 trigger_sr\[16\]
*286 trigger_sr\[17\]
*287 trigger_sr\[18\]
*288 trigger_sr\[19\]
*289 trigger_sr\[1\]
*290 trigger_sr\[20\]
*291 trigger_sr\[21\]
*292 trigger_sr\[22\]
*293 trigger_sr\[23\]
*294 trigger_sr\[24\]
*295 trigger_sr\[25\]
*296 trigger_sr\[26\]
*297 trigger_sr\[27\]
*298 trigger_sr\[28\]
*299 trigger_sr\[29\]
*300 trigger_sr\[2\]
*301 trigger_sr\[30\]
*302 trigger_sr\[31\]
*303 trigger_sr\[3\]
*304 trigger_sr\[4\]
*305 trigger_sr\[5\]
*306 trigger_sr\[6\]
*307 trigger_sr\[7\]
*308 trigger_sr\[8\]
*309 trigger_sr\[9\]
*310 FILLER_0_0_109
*311 FILLER_0_0_113
*312 FILLER_0_0_125
*313 FILLER_0_0_137
*314 FILLER_0_0_141
*315 FILLER_0_0_15
*316 FILLER_0_0_153
*317 FILLER_0_0_165
*318 FILLER_0_0_169
*319 FILLER_0_0_181
*320 FILLER_0_0_193
*321 FILLER_0_0_197
*322 FILLER_0_0_209
*323 FILLER_0_0_221
*324 FILLER_0_0_225
*325 FILLER_0_0_237
*326 FILLER_0_0_249
*327 FILLER_0_0_253
*328 FILLER_0_0_265
*329 FILLER_0_0_27
*330 FILLER_0_0_277
*331 FILLER_0_0_281
*332 FILLER_0_0_29
*333 FILLER_0_0_293
*334 FILLER_0_0_3
*335 FILLER_0_0_305
*336 FILLER_0_0_309
*337 FILLER_0_0_321
*338 FILLER_0_0_333
*339 FILLER_0_0_337
*340 FILLER_0_0_349
*341 FILLER_0_0_41
*342 FILLER_0_0_53
*343 FILLER_0_0_57
*344 FILLER_0_0_69
*345 FILLER_0_0_81
*346 FILLER_0_0_85
*347 FILLER_0_0_97
*348 FILLER_0_10_109
*349 FILLER_0_10_121
*350 FILLER_0_10_133
*351 FILLER_0_10_139
*352 FILLER_0_10_141
*353 FILLER_0_10_15
*354 FILLER_0_10_153
*355 FILLER_0_10_165
*356 FILLER_0_10_177
*357 FILLER_0_10_189
*358 FILLER_0_10_195
*359 FILLER_0_10_197
*360 FILLER_0_10_209
*361 FILLER_0_10_221
*362 FILLER_0_10_233
*363 FILLER_0_10_245
*364 FILLER_0_10_251
*365 FILLER_0_10_253
*366 FILLER_0_10_265
*367 FILLER_0_10_27
*368 FILLER_0_10_277
*369 FILLER_0_10_289
*370 FILLER_0_10_29
*371 FILLER_0_10_3
*372 FILLER_0_10_301
*373 FILLER_0_10_307
*374 FILLER_0_10_309
*375 FILLER_0_10_321
*376 FILLER_0_10_333
*377 FILLER_0_10_345
*378 FILLER_0_10_41
*379 FILLER_0_10_53
*380 FILLER_0_10_65
*381 FILLER_0_10_77
*382 FILLER_0_10_83
*383 FILLER_0_10_85
*384 FILLER_0_10_97
*385 FILLER_0_11_105
*386 FILLER_0_11_111
*387 FILLER_0_11_113
*388 FILLER_0_11_125
*389 FILLER_0_11_137
*390 FILLER_0_11_149
*391 FILLER_0_11_15
*392 FILLER_0_11_161
*393 FILLER_0_11_167
*394 FILLER_0_11_169
*395 FILLER_0_11_181
*396 FILLER_0_11_193
*397 FILLER_0_11_205
*398 FILLER_0_11_217
*399 FILLER_0_11_223
*400 FILLER_0_11_225
*401 FILLER_0_11_237
*402 FILLER_0_11_249
*403 FILLER_0_11_261
*404 FILLER_0_11_27
*405 FILLER_0_11_273
*406 FILLER_0_11_279
*407 FILLER_0_11_281
*408 FILLER_0_11_293
*409 FILLER_0_11_3
*410 FILLER_0_11_305
*411 FILLER_0_11_317
*412 FILLER_0_11_329
*413 FILLER_0_11_335
*414 FILLER_0_11_337
*415 FILLER_0_11_349
*416 FILLER_0_11_39
*417 FILLER_0_11_51
*418 FILLER_0_11_55
*419 FILLER_0_11_57
*420 FILLER_0_11_69
*421 FILLER_0_11_81
*422 FILLER_0_11_93
*423 FILLER_0_12_109
*424 FILLER_0_12_121
*425 FILLER_0_12_133
*426 FILLER_0_12_139
*427 FILLER_0_12_141
*428 FILLER_0_12_15
*429 FILLER_0_12_153
*430 FILLER_0_12_165
*431 FILLER_0_12_177
*432 FILLER_0_12_189
*433 FILLER_0_12_195
*434 FILLER_0_12_197
*435 FILLER_0_12_209
*436 FILLER_0_12_221
*437 FILLER_0_12_233
*438 FILLER_0_12_245
*439 FILLER_0_12_251
*440 FILLER_0_12_253
*441 FILLER_0_12_265
*442 FILLER_0_12_27
*443 FILLER_0_12_277
*444 FILLER_0_12_289
*445 FILLER_0_12_29
*446 FILLER_0_12_3
*447 FILLER_0_12_301
*448 FILLER_0_12_307
*449 FILLER_0_12_309
*450 FILLER_0_12_321
*451 FILLER_0_12_333
*452 FILLER_0_12_345
*453 FILLER_0_12_41
*454 FILLER_0_12_53
*455 FILLER_0_12_65
*456 FILLER_0_12_77
*457 FILLER_0_12_83
*458 FILLER_0_12_85
*459 FILLER_0_12_97
*460 FILLER_0_13_105
*461 FILLER_0_13_111
*462 FILLER_0_13_113
*463 FILLER_0_13_125
*464 FILLER_0_13_137
*465 FILLER_0_13_149
*466 FILLER_0_13_15
*467 FILLER_0_13_161
*468 FILLER_0_13_167
*469 FILLER_0_13_169
*470 FILLER_0_13_181
*471 FILLER_0_13_193
*472 FILLER_0_13_205
*473 FILLER_0_13_217
*474 FILLER_0_13_223
*475 FILLER_0_13_225
*476 FILLER_0_13_237
*477 FILLER_0_13_249
*478 FILLER_0_13_261
*479 FILLER_0_13_27
*480 FILLER_0_13_273
*481 FILLER_0_13_279
*482 FILLER_0_13_281
*483 FILLER_0_13_293
*484 FILLER_0_13_3
*485 FILLER_0_13_305
*486 FILLER_0_13_317
*487 FILLER_0_13_329
*488 FILLER_0_13_335
*489 FILLER_0_13_337
*490 FILLER_0_13_349
*491 FILLER_0_13_39
*492 FILLER_0_13_51
*493 FILLER_0_13_55
*494 FILLER_0_13_57
*495 FILLER_0_13_69
*496 FILLER_0_13_81
*497 FILLER_0_13_93
*498 FILLER_0_14_109
*499 FILLER_0_14_121
*500 FILLER_0_14_133
*501 FILLER_0_14_139
*502 FILLER_0_14_141
*503 FILLER_0_14_15
*504 FILLER_0_14_153
*505 FILLER_0_14_165
*506 FILLER_0_14_177
*507 FILLER_0_14_189
*508 FILLER_0_14_195
*509 FILLER_0_14_197
*510 FILLER_0_14_209
*511 FILLER_0_14_221
*512 FILLER_0_14_233
*513 FILLER_0_14_245
*514 FILLER_0_14_251
*515 FILLER_0_14_253
*516 FILLER_0_14_265
*517 FILLER_0_14_27
*518 FILLER_0_14_277
*519 FILLER_0_14_289
*520 FILLER_0_14_29
*521 FILLER_0_14_3
*522 FILLER_0_14_301
*523 FILLER_0_14_307
*524 FILLER_0_14_309
*525 FILLER_0_14_321
*526 FILLER_0_14_333
*527 FILLER_0_14_345
*528 FILLER_0_14_41
*529 FILLER_0_14_53
*530 FILLER_0_14_65
*531 FILLER_0_14_77
*532 FILLER_0_14_83
*533 FILLER_0_14_85
*534 FILLER_0_14_97
*535 FILLER_0_15_105
*536 FILLER_0_15_111
*537 FILLER_0_15_113
*538 FILLER_0_15_125
*539 FILLER_0_15_137
*540 FILLER_0_15_149
*541 FILLER_0_15_15
*542 FILLER_0_15_161
*543 FILLER_0_15_167
*544 FILLER_0_15_169
*545 FILLER_0_15_181
*546 FILLER_0_15_193
*547 FILLER_0_15_205
*548 FILLER_0_15_217
*549 FILLER_0_15_223
*550 FILLER_0_15_225
*551 FILLER_0_15_237
*552 FILLER_0_15_249
*553 FILLER_0_15_261
*554 FILLER_0_15_27
*555 FILLER_0_15_273
*556 FILLER_0_15_279
*557 FILLER_0_15_281
*558 FILLER_0_15_293
*559 FILLER_0_15_3
*560 FILLER_0_15_305
*561 FILLER_0_15_317
*562 FILLER_0_15_329
*563 FILLER_0_15_335
*564 FILLER_0_15_337
*565 FILLER_0_15_349
*566 FILLER_0_15_39
*567 FILLER_0_15_51
*568 FILLER_0_15_55
*569 FILLER_0_15_57
*570 FILLER_0_15_69
*571 FILLER_0_15_81
*572 FILLER_0_15_93
*573 FILLER_0_16_109
*574 FILLER_0_16_121
*575 FILLER_0_16_133
*576 FILLER_0_16_139
*577 FILLER_0_16_141
*578 FILLER_0_16_15
*579 FILLER_0_16_153
*580 FILLER_0_16_165
*581 FILLER_0_16_177
*582 FILLER_0_16_189
*583 FILLER_0_16_195
*584 FILLER_0_16_197
*585 FILLER_0_16_209
*586 FILLER_0_16_221
*587 FILLER_0_16_233
*588 FILLER_0_16_245
*589 FILLER_0_16_251
*590 FILLER_0_16_253
*591 FILLER_0_16_265
*592 FILLER_0_16_27
*593 FILLER_0_16_277
*594 FILLER_0_16_289
*595 FILLER_0_16_29
*596 FILLER_0_16_3
*597 FILLER_0_16_301
*598 FILLER_0_16_307
*599 FILLER_0_16_309
*600 FILLER_0_16_321
*601 FILLER_0_16_333
*602 FILLER_0_16_345
*603 FILLER_0_16_41
*604 FILLER_0_16_53
*605 FILLER_0_16_65
*606 FILLER_0_16_77
*607 FILLER_0_16_83
*608 FILLER_0_16_85
*609 FILLER_0_16_97
*610 FILLER_0_17_105
*611 FILLER_0_17_111
*612 FILLER_0_17_113
*613 FILLER_0_17_125
*614 FILLER_0_17_137
*615 FILLER_0_17_149
*616 FILLER_0_17_15
*617 FILLER_0_17_161
*618 FILLER_0_17_167
*619 FILLER_0_17_169
*620 FILLER_0_17_181
*621 FILLER_0_17_193
*622 FILLER_0_17_205
*623 FILLER_0_17_217
*624 FILLER_0_17_223
*625 FILLER_0_17_225
*626 FILLER_0_17_237
*627 FILLER_0_17_249
*628 FILLER_0_17_261
*629 FILLER_0_17_27
*630 FILLER_0_17_273
*631 FILLER_0_17_279
*632 FILLER_0_17_281
*633 FILLER_0_17_293
*634 FILLER_0_17_3
*635 FILLER_0_17_305
*636 FILLER_0_17_317
*637 FILLER_0_17_329
*638 FILLER_0_17_335
*639 FILLER_0_17_337
*640 FILLER_0_17_349
*641 FILLER_0_17_39
*642 FILLER_0_17_51
*643 FILLER_0_17_55
*644 FILLER_0_17_57
*645 FILLER_0_17_69
*646 FILLER_0_17_81
*647 FILLER_0_17_93
*648 FILLER_0_18_109
*649 FILLER_0_18_121
*650 FILLER_0_18_133
*651 FILLER_0_18_139
*652 FILLER_0_18_141
*653 FILLER_0_18_15
*654 FILLER_0_18_153
*655 FILLER_0_18_165
*656 FILLER_0_18_177
*657 FILLER_0_18_189
*658 FILLER_0_18_195
*659 FILLER_0_18_197
*660 FILLER_0_18_209
*661 FILLER_0_18_221
*662 FILLER_0_18_233
*663 FILLER_0_18_245
*664 FILLER_0_18_251
*665 FILLER_0_18_253
*666 FILLER_0_18_265
*667 FILLER_0_18_27
*668 FILLER_0_18_277
*669 FILLER_0_18_289
*670 FILLER_0_18_29
*671 FILLER_0_18_3
*672 FILLER_0_18_301
*673 FILLER_0_18_307
*674 FILLER_0_18_309
*675 FILLER_0_18_321
*676 FILLER_0_18_333
*677 FILLER_0_18_345
*678 FILLER_0_18_41
*679 FILLER_0_18_53
*680 FILLER_0_18_65
*681 FILLER_0_18_77
*682 FILLER_0_18_83
*683 FILLER_0_18_85
*684 FILLER_0_18_97
*685 FILLER_0_19_105
*686 FILLER_0_19_111
*687 FILLER_0_19_113
*688 FILLER_0_19_125
*689 FILLER_0_19_137
*690 FILLER_0_19_149
*691 FILLER_0_19_15
*692 FILLER_0_19_161
*693 FILLER_0_19_167
*694 FILLER_0_19_169
*695 FILLER_0_19_181
*696 FILLER_0_19_193
*697 FILLER_0_19_205
*698 FILLER_0_19_217
*699 FILLER_0_19_223
*700 FILLER_0_19_225
*701 FILLER_0_19_237
*702 FILLER_0_19_249
*703 FILLER_0_19_261
*704 FILLER_0_19_27
*705 FILLER_0_19_273
*706 FILLER_0_19_279
*707 FILLER_0_19_281
*708 FILLER_0_19_293
*709 FILLER_0_19_3
*710 FILLER_0_19_305
*711 FILLER_0_19_317
*712 FILLER_0_19_329
*713 FILLER_0_19_335
*714 FILLER_0_19_337
*715 FILLER_0_19_349
*716 FILLER_0_19_39
*717 FILLER_0_19_51
*718 FILLER_0_19_55
*719 FILLER_0_19_57
*720 FILLER_0_19_69
*721 FILLER_0_19_81
*722 FILLER_0_19_93
*723 FILLER_0_1_105
*724 FILLER_0_1_111
*725 FILLER_0_1_113
*726 FILLER_0_1_125
*727 FILLER_0_1_137
*728 FILLER_0_1_149
*729 FILLER_0_1_15
*730 FILLER_0_1_161
*731 FILLER_0_1_167
*732 FILLER_0_1_169
*733 FILLER_0_1_181
*734 FILLER_0_1_193
*735 FILLER_0_1_205
*736 FILLER_0_1_217
*737 FILLER_0_1_223
*738 FILLER_0_1_225
*739 FILLER_0_1_237
*740 FILLER_0_1_249
*741 FILLER_0_1_261
*742 FILLER_0_1_27
*743 FILLER_0_1_273
*744 FILLER_0_1_279
*745 FILLER_0_1_281
*746 FILLER_0_1_293
*747 FILLER_0_1_3
*748 FILLER_0_1_305
*749 FILLER_0_1_317
*750 FILLER_0_1_329
*751 FILLER_0_1_335
*752 FILLER_0_1_337
*753 FILLER_0_1_349
*754 FILLER_0_1_39
*755 FILLER_0_1_51
*756 FILLER_0_1_55
*757 FILLER_0_1_57
*758 FILLER_0_1_69
*759 FILLER_0_1_81
*760 FILLER_0_1_93
*761 FILLER_0_20_109
*762 FILLER_0_20_121
*763 FILLER_0_20_133
*764 FILLER_0_20_139
*765 FILLER_0_20_141
*766 FILLER_0_20_15
*767 FILLER_0_20_153
*768 FILLER_0_20_165
*769 FILLER_0_20_177
*770 FILLER_0_20_189
*771 FILLER_0_20_195
*772 FILLER_0_20_197
*773 FILLER_0_20_209
*774 FILLER_0_20_221
*775 FILLER_0_20_233
*776 FILLER_0_20_245
*777 FILLER_0_20_251
*778 FILLER_0_20_253
*779 FILLER_0_20_265
*780 FILLER_0_20_27
*781 FILLER_0_20_277
*782 FILLER_0_20_289
*783 FILLER_0_20_29
*784 FILLER_0_20_3
*785 FILLER_0_20_301
*786 FILLER_0_20_307
*787 FILLER_0_20_309
*788 FILLER_0_20_321
*789 FILLER_0_20_333
*790 FILLER_0_20_345
*791 FILLER_0_20_41
*792 FILLER_0_20_53
*793 FILLER_0_20_65
*794 FILLER_0_20_77
*795 FILLER_0_20_83
*796 FILLER_0_20_85
*797 FILLER_0_20_97
*798 FILLER_0_21_105
*799 FILLER_0_21_111
*800 FILLER_0_21_113
*801 FILLER_0_21_125
*802 FILLER_0_21_137
*803 FILLER_0_21_149
*804 FILLER_0_21_15
*805 FILLER_0_21_161
*806 FILLER_0_21_167
*807 FILLER_0_21_169
*808 FILLER_0_21_181
*809 FILLER_0_21_193
*810 FILLER_0_21_205
*811 FILLER_0_21_217
*812 FILLER_0_21_223
*813 FILLER_0_21_225
*814 FILLER_0_21_237
*815 FILLER_0_21_249
*816 FILLER_0_21_261
*817 FILLER_0_21_27
*818 FILLER_0_21_273
*819 FILLER_0_21_279
*820 FILLER_0_21_281
*821 FILLER_0_21_293
*822 FILLER_0_21_3
*823 FILLER_0_21_305
*824 FILLER_0_21_317
*825 FILLER_0_21_329
*826 FILLER_0_21_335
*827 FILLER_0_21_337
*828 FILLER_0_21_349
*829 FILLER_0_21_39
*830 FILLER_0_21_51
*831 FILLER_0_21_55
*832 FILLER_0_21_57
*833 FILLER_0_21_69
*834 FILLER_0_21_81
*835 FILLER_0_21_93
*836 FILLER_0_22_109
*837 FILLER_0_22_121
*838 FILLER_0_22_133
*839 FILLER_0_22_139
*840 FILLER_0_22_141
*841 FILLER_0_22_15
*842 FILLER_0_22_153
*843 FILLER_0_22_165
*844 FILLER_0_22_177
*845 FILLER_0_22_189
*846 FILLER_0_22_195
*847 FILLER_0_22_197
*848 FILLER_0_22_209
*849 FILLER_0_22_221
*850 FILLER_0_22_233
*851 FILLER_0_22_245
*852 FILLER_0_22_251
*853 FILLER_0_22_253
*854 FILLER_0_22_265
*855 FILLER_0_22_27
*856 FILLER_0_22_277
*857 FILLER_0_22_289
*858 FILLER_0_22_29
*859 FILLER_0_22_3
*860 FILLER_0_22_301
*861 FILLER_0_22_307
*862 FILLER_0_22_309
*863 FILLER_0_22_321
*864 FILLER_0_22_333
*865 FILLER_0_22_345
*866 FILLER_0_22_41
*867 FILLER_0_22_53
*868 FILLER_0_22_65
*869 FILLER_0_22_77
*870 FILLER_0_22_83
*871 FILLER_0_22_85
*872 FILLER_0_22_97
*873 FILLER_0_23_105
*874 FILLER_0_23_111
*875 FILLER_0_23_113
*876 FILLER_0_23_125
*877 FILLER_0_23_137
*878 FILLER_0_23_149
*879 FILLER_0_23_15
*880 FILLER_0_23_161
*881 FILLER_0_23_167
*882 FILLER_0_23_169
*883 FILLER_0_23_181
*884 FILLER_0_23_193
*885 FILLER_0_23_205
*886 FILLER_0_23_217
*887 FILLER_0_23_223
*888 FILLER_0_23_225
*889 FILLER_0_23_237
*890 FILLER_0_23_249
*891 FILLER_0_23_261
*892 FILLER_0_23_27
*893 FILLER_0_23_273
*894 FILLER_0_23_279
*895 FILLER_0_23_281
*896 FILLER_0_23_293
*897 FILLER_0_23_3
*898 FILLER_0_23_305
*899 FILLER_0_23_317
*900 FILLER_0_23_329
*901 FILLER_0_23_335
*902 FILLER_0_23_337
*903 FILLER_0_23_349
*904 FILLER_0_23_39
*905 FILLER_0_23_51
*906 FILLER_0_23_55
*907 FILLER_0_23_57
*908 FILLER_0_23_69
*909 FILLER_0_23_81
*910 FILLER_0_23_93
*911 FILLER_0_24_109
*912 FILLER_0_24_115
*913 FILLER_0_24_120
*914 FILLER_0_24_132
*915 FILLER_0_24_141
*916 FILLER_0_24_15
*917 FILLER_0_24_153
*918 FILLER_0_24_159
*919 FILLER_0_24_164
*920 FILLER_0_24_170
*921 FILLER_0_24_175
*922 FILLER_0_24_187
*923 FILLER_0_24_195
*924 FILLER_0_24_197
*925 FILLER_0_24_209
*926 FILLER_0_24_221
*927 FILLER_0_24_233
*928 FILLER_0_24_245
*929 FILLER_0_24_251
*930 FILLER_0_24_253
*931 FILLER_0_24_265
*932 FILLER_0_24_27
*933 FILLER_0_24_277
*934 FILLER_0_24_289
*935 FILLER_0_24_29
*936 FILLER_0_24_3
*937 FILLER_0_24_301
*938 FILLER_0_24_307
*939 FILLER_0_24_309
*940 FILLER_0_24_321
*941 FILLER_0_24_333
*942 FILLER_0_24_345
*943 FILLER_0_24_41
*944 FILLER_0_24_53
*945 FILLER_0_24_65
*946 FILLER_0_24_77
*947 FILLER_0_24_83
*948 FILLER_0_24_85
*949 FILLER_0_24_97
*950 FILLER_0_25_105
*951 FILLER_0_25_113
*952 FILLER_0_25_124
*953 FILLER_0_25_139
*954 FILLER_0_25_15
*955 FILLER_0_25_154
*956 FILLER_0_25_165
*957 FILLER_0_25_169
*958 FILLER_0_25_175
*959 FILLER_0_25_192
*960 FILLER_0_25_204
*961 FILLER_0_25_216
*962 FILLER_0_25_225
*963 FILLER_0_25_237
*964 FILLER_0_25_249
*965 FILLER_0_25_261
*966 FILLER_0_25_27
*967 FILLER_0_25_273
*968 FILLER_0_25_279
*969 FILLER_0_25_281
*970 FILLER_0_25_293
*971 FILLER_0_25_3
*972 FILLER_0_25_305
*973 FILLER_0_25_317
*974 FILLER_0_25_329
*975 FILLER_0_25_335
*976 FILLER_0_25_337
*977 FILLER_0_25_349
*978 FILLER_0_25_39
*979 FILLER_0_25_51
*980 FILLER_0_25_55
*981 FILLER_0_25_57
*982 FILLER_0_25_69
*983 FILLER_0_25_81
*984 FILLER_0_25_93
*985 FILLER_0_26_109
*986 FILLER_0_26_115
*987 FILLER_0_26_120
*988 FILLER_0_26_132
*989 FILLER_0_26_141
*990 FILLER_0_26_148
*991 FILLER_0_26_15
*992 FILLER_0_26_160
*993 FILLER_0_26_165
*994 FILLER_0_26_175
*995 FILLER_0_26_185
*996 FILLER_0_26_193
*997 FILLER_0_26_197
*998 FILLER_0_26_209
*999 FILLER_0_26_221
*1000 FILLER_0_26_233
*1001 FILLER_0_26_245
*1002 FILLER_0_26_251
*1003 FILLER_0_26_253
*1004 FILLER_0_26_265
*1005 FILLER_0_26_27
*1006 FILLER_0_26_277
*1007 FILLER_0_26_289
*1008 FILLER_0_26_29
*1009 FILLER_0_26_3
*1010 FILLER_0_26_301
*1011 FILLER_0_26_307
*1012 FILLER_0_26_309
*1013 FILLER_0_26_321
*1014 FILLER_0_26_333
*1015 FILLER_0_26_345
*1016 FILLER_0_26_41
*1017 FILLER_0_26_53
*1018 FILLER_0_26_65
*1019 FILLER_0_26_77
*1020 FILLER_0_26_83
*1021 FILLER_0_26_85
*1022 FILLER_0_26_97
*1023 FILLER_0_27_105
*1024 FILLER_0_27_111
*1025 FILLER_0_27_113
*1026 FILLER_0_27_131
*1027 FILLER_0_27_149
*1028 FILLER_0_27_15
*1029 FILLER_0_27_157
*1030 FILLER_0_27_166
*1031 FILLER_0_27_187
*1032 FILLER_0_27_199
*1033 FILLER_0_27_211
*1034 FILLER_0_27_223
*1035 FILLER_0_27_225
*1036 FILLER_0_27_237
*1037 FILLER_0_27_249
*1038 FILLER_0_27_261
*1039 FILLER_0_27_27
*1040 FILLER_0_27_273
*1041 FILLER_0_27_279
*1042 FILLER_0_27_281
*1043 FILLER_0_27_293
*1044 FILLER_0_27_3
*1045 FILLER_0_27_305
*1046 FILLER_0_27_317
*1047 FILLER_0_27_329
*1048 FILLER_0_27_335
*1049 FILLER_0_27_337
*1050 FILLER_0_27_349
*1051 FILLER_0_27_39
*1052 FILLER_0_27_51
*1053 FILLER_0_27_55
*1054 FILLER_0_27_57
*1055 FILLER_0_27_69
*1056 FILLER_0_27_81
*1057 FILLER_0_27_93
*1058 FILLER_0_28_109
*1059 FILLER_0_28_119
*1060 FILLER_0_28_133
*1061 FILLER_0_28_145
*1062 FILLER_0_28_15
*1063 FILLER_0_28_162
*1064 FILLER_0_28_191
*1065 FILLER_0_28_195
*1066 FILLER_0_28_197
*1067 FILLER_0_28_205
*1068 FILLER_0_28_235
*1069 FILLER_0_28_247
*1070 FILLER_0_28_251
*1071 FILLER_0_28_253
*1072 FILLER_0_28_259
*1073 FILLER_0_28_27
*1074 FILLER_0_28_280
*1075 FILLER_0_28_29
*1076 FILLER_0_28_292
*1077 FILLER_0_28_3
*1078 FILLER_0_28_304
*1079 FILLER_0_28_309
*1080 FILLER_0_28_321
*1081 FILLER_0_28_333
*1082 FILLER_0_28_345
*1083 FILLER_0_28_41
*1084 FILLER_0_28_53
*1085 FILLER_0_28_65
*1086 FILLER_0_28_77
*1087 FILLER_0_28_83
*1088 FILLER_0_28_85
*1089 FILLER_0_28_97
*1090 FILLER_0_29_105
*1091 FILLER_0_29_113
*1092 FILLER_0_29_123
*1093 FILLER_0_29_144
*1094 FILLER_0_29_15
*1095 FILLER_0_29_166
*1096 FILLER_0_29_169
*1097 FILLER_0_29_218
*1098 FILLER_0_29_245
*1099 FILLER_0_29_27
*1100 FILLER_0_29_277
*1101 FILLER_0_29_289
*1102 FILLER_0_29_3
*1103 FILLER_0_29_301
*1104 FILLER_0_29_313
*1105 FILLER_0_29_325
*1106 FILLER_0_29_333
*1107 FILLER_0_29_337
*1108 FILLER_0_29_349
*1109 FILLER_0_29_39
*1110 FILLER_0_29_51
*1111 FILLER_0_29_55
*1112 FILLER_0_29_57
*1113 FILLER_0_29_69
*1114 FILLER_0_29_81
*1115 FILLER_0_29_93
*1116 FILLER_0_2_109
*1117 FILLER_0_2_121
*1118 FILLER_0_2_133
*1119 FILLER_0_2_139
*1120 FILLER_0_2_141
*1121 FILLER_0_2_15
*1122 FILLER_0_2_153
*1123 FILLER_0_2_165
*1124 FILLER_0_2_177
*1125 FILLER_0_2_189
*1126 FILLER_0_2_195
*1127 FILLER_0_2_197
*1128 FILLER_0_2_209
*1129 FILLER_0_2_221
*1130 FILLER_0_2_233
*1131 FILLER_0_2_245
*1132 FILLER_0_2_251
*1133 FILLER_0_2_253
*1134 FILLER_0_2_265
*1135 FILLER_0_2_27
*1136 FILLER_0_2_277
*1137 FILLER_0_2_289
*1138 FILLER_0_2_29
*1139 FILLER_0_2_3
*1140 FILLER_0_2_301
*1141 FILLER_0_2_307
*1142 FILLER_0_2_309
*1143 FILLER_0_2_321
*1144 FILLER_0_2_333
*1145 FILLER_0_2_345
*1146 FILLER_0_2_41
*1147 FILLER_0_2_53
*1148 FILLER_0_2_65
*1149 FILLER_0_2_77
*1150 FILLER_0_2_83
*1151 FILLER_0_2_85
*1152 FILLER_0_2_97
*1153 FILLER_0_30_103
*1154 FILLER_0_30_109
*1155 FILLER_0_30_139
*1156 FILLER_0_30_149
*1157 FILLER_0_30_15
*1158 FILLER_0_30_155
*1159 FILLER_0_30_205
*1160 FILLER_0_30_219
*1161 FILLER_0_30_231
*1162 FILLER_0_30_243
*1163 FILLER_0_30_27
*1164 FILLER_0_30_273
*1165 FILLER_0_30_29
*1166 FILLER_0_30_294
*1167 FILLER_0_30_3
*1168 FILLER_0_30_304
*1169 FILLER_0_30_309
*1170 FILLER_0_30_321
*1171 FILLER_0_30_333
*1172 FILLER_0_30_345
*1173 FILLER_0_30_41
*1174 FILLER_0_30_53
*1175 FILLER_0_30_65
*1176 FILLER_0_30_77
*1177 FILLER_0_30_83
*1178 FILLER_0_30_85
*1179 FILLER_0_30_97
*1180 FILLER_0_31_107
*1181 FILLER_0_31_125
*1182 FILLER_0_31_15
*1183 FILLER_0_31_151
*1184 FILLER_0_31_159
*1185 FILLER_0_31_195
*1186 FILLER_0_31_207
*1187 FILLER_0_31_217
*1188 FILLER_0_31_223
*1189 FILLER_0_31_225
*1190 FILLER_0_31_237
*1191 FILLER_0_31_265
*1192 FILLER_0_31_27
*1193 FILLER_0_31_271
*1194 FILLER_0_31_278
*1195 FILLER_0_31_296
*1196 FILLER_0_31_3
*1197 FILLER_0_31_318
*1198 FILLER_0_31_330
*1199 FILLER_0_31_337
*1200 FILLER_0_31_349
*1201 FILLER_0_31_39
*1202 FILLER_0_31_51
*1203 FILLER_0_31_55
*1204 FILLER_0_31_57
*1205 FILLER_0_31_69
*1206 FILLER_0_31_75
*1207 FILLER_0_31_88
*1208 FILLER_0_32_103
*1209 FILLER_0_32_115
*1210 FILLER_0_32_129
*1211 FILLER_0_32_137
*1212 FILLER_0_32_141
*1213 FILLER_0_32_147
*1214 FILLER_0_32_15
*1215 FILLER_0_32_156
*1216 FILLER_0_32_165
*1217 FILLER_0_32_188
*1218 FILLER_0_32_197
*1219 FILLER_0_32_209
*1220 FILLER_0_32_218
*1221 FILLER_0_32_222
*1222 FILLER_0_32_243
*1223 FILLER_0_32_251
*1224 FILLER_0_32_253
*1225 FILLER_0_32_27
*1226 FILLER_0_32_277
*1227 FILLER_0_32_281
*1228 FILLER_0_32_29
*1229 FILLER_0_32_3
*1230 FILLER_0_32_302
*1231 FILLER_0_32_309
*1232 FILLER_0_32_340
*1233 FILLER_0_32_348
*1234 FILLER_0_32_41
*1235 FILLER_0_32_53
*1236 FILLER_0_32_65
*1237 FILLER_0_32_71
*1238 FILLER_0_32_89
*1239 FILLER_0_32_97
*1240 FILLER_0_33_110
*1241 FILLER_0_33_113
*1242 FILLER_0_33_124
*1243 FILLER_0_33_15
*1244 FILLER_0_33_167
*1245 FILLER_0_33_169
*1246 FILLER_0_33_225
*1247 FILLER_0_33_27
*1248 FILLER_0_33_279
*1249 FILLER_0_33_289
*1250 FILLER_0_33_3
*1251 FILLER_0_33_326
*1252 FILLER_0_33_334
*1253 FILLER_0_33_337
*1254 FILLER_0_33_349
*1255 FILLER_0_33_39
*1256 FILLER_0_33_51
*1257 FILLER_0_33_55
*1258 FILLER_0_33_57
*1259 FILLER_0_33_69
*1260 FILLER_0_33_85
*1261 FILLER_0_33_97
*1262 FILLER_0_34_112
*1263 FILLER_0_34_130
*1264 FILLER_0_34_138
*1265 FILLER_0_34_15
*1266 FILLER_0_34_169
*1267 FILLER_0_34_191
*1268 FILLER_0_34_195
*1269 FILLER_0_34_243
*1270 FILLER_0_34_253
*1271 FILLER_0_34_259
*1272 FILLER_0_34_27
*1273 FILLER_0_34_29
*1274 FILLER_0_34_3
*1275 FILLER_0_34_335
*1276 FILLER_0_34_347
*1277 FILLER_0_34_41
*1278 FILLER_0_34_53
*1279 FILLER_0_34_65
*1280 FILLER_0_34_81
*1281 FILLER_0_34_89
*1282 FILLER_0_34_95
*1283 FILLER_0_35_109
*1284 FILLER_0_35_113
*1285 FILLER_0_35_131
*1286 FILLER_0_35_145
*1287 FILLER_0_35_15
*1288 FILLER_0_35_169
*1289 FILLER_0_35_206
*1290 FILLER_0_35_210
*1291 FILLER_0_35_217
*1292 FILLER_0_35_223
*1293 FILLER_0_35_233
*1294 FILLER_0_35_27
*1295 FILLER_0_35_279
*1296 FILLER_0_35_281
*1297 FILLER_0_35_289
*1298 FILLER_0_35_295
*1299 FILLER_0_35_3
*1300 FILLER_0_35_316
*1301 FILLER_0_35_328
*1302 FILLER_0_35_337
*1303 FILLER_0_35_349
*1304 FILLER_0_35_39
*1305 FILLER_0_35_51
*1306 FILLER_0_35_55
*1307 FILLER_0_35_57
*1308 FILLER_0_35_69
*1309 FILLER_0_35_75
*1310 FILLER_0_35_84
*1311 FILLER_0_36_106
*1312 FILLER_0_36_113
*1313 FILLER_0_36_133
*1314 FILLER_0_36_139
*1315 FILLER_0_36_141
*1316 FILLER_0_36_15
*1317 FILLER_0_36_153
*1318 FILLER_0_36_164
*1319 FILLER_0_36_176
*1320 FILLER_0_36_194
*1321 FILLER_0_36_205
*1322 FILLER_0_36_226
*1323 FILLER_0_36_237
*1324 FILLER_0_36_243
*1325 FILLER_0_36_27
*1326 FILLER_0_36_275
*1327 FILLER_0_36_279
*1328 FILLER_0_36_29
*1329 FILLER_0_36_3
*1330 FILLER_0_36_309
*1331 FILLER_0_36_340
*1332 FILLER_0_36_348
*1333 FILLER_0_36_41
*1334 FILLER_0_36_53
*1335 FILLER_0_36_65
*1336 FILLER_0_36_89
*1337 FILLER_0_37_100
*1338 FILLER_0_37_104
*1339 FILLER_0_37_109
*1340 FILLER_0_37_125
*1341 FILLER_0_37_15
*1342 FILLER_0_37_167
*1343 FILLER_0_37_182
*1344 FILLER_0_37_190
*1345 FILLER_0_37_219
*1346 FILLER_0_37_27
*1347 FILLER_0_37_279
*1348 FILLER_0_37_289
*1349 FILLER_0_37_293
*1350 FILLER_0_37_3
*1351 FILLER_0_37_314
*1352 FILLER_0_37_323
*1353 FILLER_0_37_335
*1354 FILLER_0_37_337
*1355 FILLER_0_37_349
*1356 FILLER_0_37_39
*1357 FILLER_0_37_51
*1358 FILLER_0_37_55
*1359 FILLER_0_37_57
*1360 FILLER_0_37_69
*1361 FILLER_0_37_77
*1362 FILLER_0_37_82
*1363 FILLER_0_37_90
*1364 FILLER_0_37_95
*1365 FILLER_0_38_104
*1366 FILLER_0_38_110
*1367 FILLER_0_38_116
*1368 FILLER_0_38_122
*1369 FILLER_0_38_128
*1370 FILLER_0_38_134
*1371 FILLER_0_38_141
*1372 FILLER_0_38_146
*1373 FILLER_0_38_15
*1374 FILLER_0_38_152
*1375 FILLER_0_38_163
*1376 FILLER_0_38_169
*1377 FILLER_0_38_182
*1378 FILLER_0_38_187
*1379 FILLER_0_38_192
*1380 FILLER_0_38_201
*1381 FILLER_0_38_210
*1382 FILLER_0_38_251
*1383 FILLER_0_38_253
*1384 FILLER_0_38_259
*1385 FILLER_0_38_27
*1386 FILLER_0_38_29
*1387 FILLER_0_38_3
*1388 FILLER_0_38_325
*1389 FILLER_0_38_333
*1390 FILLER_0_38_337
*1391 FILLER_0_38_349
*1392 FILLER_0_38_41
*1393 FILLER_0_38_53
*1394 FILLER_0_38_57
*1395 FILLER_0_38_68
*1396 FILLER_0_38_74
*1397 FILLER_0_38_80
*1398 FILLER_0_38_88
*1399 FILLER_0_38_92
*1400 FILLER_0_38_98
*1401 FILLER_0_3_105
*1402 FILLER_0_3_111
*1403 FILLER_0_3_113
*1404 FILLER_0_3_125
*1405 FILLER_0_3_137
*1406 FILLER_0_3_149
*1407 FILLER_0_3_15
*1408 FILLER_0_3_161
*1409 FILLER_0_3_167
*1410 FILLER_0_3_169
*1411 FILLER_0_3_181
*1412 FILLER_0_3_193
*1413 FILLER_0_3_205
*1414 FILLER_0_3_217
*1415 FILLER_0_3_223
*1416 FILLER_0_3_225
*1417 FILLER_0_3_237
*1418 FILLER_0_3_249
*1419 FILLER_0_3_261
*1420 FILLER_0_3_27
*1421 FILLER_0_3_273
*1422 FILLER_0_3_279
*1423 FILLER_0_3_281
*1424 FILLER_0_3_293
*1425 FILLER_0_3_3
*1426 FILLER_0_3_305
*1427 FILLER_0_3_317
*1428 FILLER_0_3_329
*1429 FILLER_0_3_335
*1430 FILLER_0_3_337
*1431 FILLER_0_3_349
*1432 FILLER_0_3_39
*1433 FILLER_0_3_51
*1434 FILLER_0_3_55
*1435 FILLER_0_3_57
*1436 FILLER_0_3_69
*1437 FILLER_0_3_81
*1438 FILLER_0_3_93
*1439 FILLER_0_4_109
*1440 FILLER_0_4_121
*1441 FILLER_0_4_133
*1442 FILLER_0_4_139
*1443 FILLER_0_4_141
*1444 FILLER_0_4_15
*1445 FILLER_0_4_153
*1446 FILLER_0_4_165
*1447 FILLER_0_4_177
*1448 FILLER_0_4_189
*1449 FILLER_0_4_195
*1450 FILLER_0_4_197
*1451 FILLER_0_4_209
*1452 FILLER_0_4_221
*1453 FILLER_0_4_233
*1454 FILLER_0_4_245
*1455 FILLER_0_4_251
*1456 FILLER_0_4_253
*1457 FILLER_0_4_265
*1458 FILLER_0_4_27
*1459 FILLER_0_4_277
*1460 FILLER_0_4_289
*1461 FILLER_0_4_29
*1462 FILLER_0_4_3
*1463 FILLER_0_4_301
*1464 FILLER_0_4_307
*1465 FILLER_0_4_309
*1466 FILLER_0_4_321
*1467 FILLER_0_4_333
*1468 FILLER_0_4_345
*1469 FILLER_0_4_41
*1470 FILLER_0_4_53
*1471 FILLER_0_4_65
*1472 FILLER_0_4_77
*1473 FILLER_0_4_83
*1474 FILLER_0_4_85
*1475 FILLER_0_4_97
*1476 FILLER_0_5_105