*SPEF "ieee 1481-1999"
*DESIGN "tt_um_seven_segment_seconds"
*DATE "11:11:11 Fri 11 11, 1111"
*VENDOR "OpenRCX"
*PROGRAM "Parallel Extraction"
*VERSION "1.0"
*DESIGN_FLOW "NAME_SCOPE LOCAL" "PIN_CAP NONE"
*DIVIDER /
*DELIMITER :
*BUS_DELIMITER []
*T_UNIT 1 NS
*C_UNIT 1 PF
*R_UNIT 1 OHM
*L_UNIT 1 HENRY

*NAME_MAP
*3 clk
*4 ena
*5 rst_n
*6 ui_in[0]
*7 ui_in[1]
*8 ui_in[2]
*9 ui_in[3]
*10 ui_in[4]
*11 ui_in[5]
*12 ui_in[6]
*13 ui_in[7]
*14 uio_in[0]
*15 uio_in[1]
*16 uio_in[2]
*17 uio_in[3]
*18 uio_in[4]
*19 uio_in[5]
*20 uio_in[6]
*21 uio_in[7]
*22 net13
*23 net14
*24 net15
*25 net16
*26 net17
*27 net18
*28 net19
*29 net20
*30 uio_out[0]
*31 uio_out[1]
*32 uio_out[2]
*33 uio_out[3]
*34 uio_out[4]
*35 uio_out[5]
*36 uio_out[6]
*37 uio_out[7]
*38 uo_out[0]
*39 uo_out[1]
*40 uo_out[2]
*41 uo_out[3]
*42 uo_out[4]
*43 uo_out[5]
*44 uo_out[6]
*45 net12
*46 _000_
*47 _001_
*48 _002_
*49 _003_
*50 _004_
*51 _005_
*52 _006_
*53 _007_
*54 _008_
*55 _009_
*56 _010_
*57 _011_
*58 _012_
*59 _013_
*60 _014_
*61 _015_
*62 _016_
*63 _017_
*64 _018_
*65 _019_
*66 _020_
*67 _021_
*68 _022_
*69 _023_
*70 _024_
*71 _025_
*72 _026_
*73 _027_
*74 _028_
*75 _029_
*76 _030_
*77 _031_
*78 _032_
*79 _033_
*80 _034_
*81 _035_
*82 _036_
*83 _037_
*84 _038_
*85 _039_
*86 _040_
*87 _041_
*88 _042_
*89 _043_
*90 _044_
*91 _045_
*92 _046_
*93 _047_
*94 _048_
*95 _049_
*96 _050_
*97 _051_
*98 _052_
*99 _053_
*100 _054_
*101 _055_
*102 _056_
*103 _057_
*104 _058_
*105 _059_
*106 _060_
*107 _061_
*108 _062_
*109 _063_
*110 _064_
*111 _065_
*112 _066_
*113 _067_
*114 _068_
*115 _069_
*116 _070_
*117 _071_
*118 _072_
*119 _073_
*120 _074_
*121 _075_
*122 _076_
*123 _077_
*124 _078_
*125 _079_
*126 _080_
*127 _081_
*128 _082_
*129 _083_
*130 _084_
*131 _085_
*132 _086_
*133 _087_
*134 _088_
*135 _089_
*136 _090_
*137 _091_
*138 _092_
*139 _093_
*140 _094_
*141 _095_
*142 _096_
*143 _097_
*144 _098_
*145 _099_
*146 _100_
*147 _101_
*148 _102_
*149 _103_
*150 _104_
*151 _105_
*152 _106_
*153 _107_
*154 _108_
*155 _109_
*156 _110_
*157 _111_
*158 _112_
*159 _113_
*160 _114_
*161 _115_
*162 _116_
*163 _117_
*164 _118_
*165 _119_
*166 _120_
*167 _121_
*168 _122_
*169 _123_
*170 _124_
*171 _125_
*172 _126_
*173 _127_
*174 _128_
*175 _129_
*176 _130_
*177 _131_
*178 _132_
*179 _133_
*180 _134_
*181 _135_
*182 _136_
*183 _137_
*184 _138_
*185 _139_
*186 _140_
*187 _141_
*188 _142_
*189 _143_
*190 _144_
*191 _145_
*192 _146_
*193 _147_
*194 _148_
*195 _149_
*196 _150_
*197 _151_
*198 _152_
*199 _153_
*200 _154_
*201 _155_
*202 _156_
*203 _157_
*204 _158_
*205 _159_
*206 _160_
*207 _161_
*208 _162_
*209 _163_
*210 _164_
*211 clknet_0_clk
*212 clknet_2_0__leaf_clk
*213 clknet_2_1__leaf_clk
*214 clknet_2_2__leaf_clk
*215 clknet_2_3__leaf_clk
*216 net1
*217 net10
*218 net11
*219 net2
*220 net21
*221 net22
*222 net23
*223 net24
*224 net25
*225 net26
*226 net3
*227 net4
*228 net5
*229 net6
*230 net7
*231 net8
*232 net9
*233 second_counter\[0\]
*234 second_counter\[10\]
*235 second_counter\[11\]
*236 second_counter\[12\]
*237 second_counter\[13\]
*238 second_counter\[14\]
*239 second_counter\[15\]
*240 second_counter\[16\]
*241 second_counter\[17\]
*242 second_counter\[18\]
*243 second_counter\[19\]
*244 second_counter\[1\]
*245 second_counter\[20\]
*246 second_counter\[21\]
*247 second_counter\[22\]
*248 second_counter\[23\]
*249 second_counter\[2\]
*250 second_counter\[3\]
*251 second_counter\[4\]
*252 second_counter\[5\]
*253 second_counter\[6\]
*254 second_counter\[7\]
*255 second_counter\[8\]
*256 second_counter\[9\]
*257 seg7\.counter\[0\]
*258 seg7\.counter\[1\]
*259 seg7\.counter\[2\]
*260 seg7\.counter\[3\]
*261 FILLER_0_0_109
*262 FILLER_0_0_113
*263 FILLER_0_0_125
*264 FILLER_0_0_137
*265 FILLER_0_0_141
*266 FILLER_0_0_15
*267 FILLER_0_0_153
*268 FILLER_0_0_165
*269 FILLER_0_0_169
*270 FILLER_0_0_181
*271 FILLER_0_0_193
*272 FILLER_0_0_197
*273 FILLER_0_0_209
*274 FILLER_0_0_221
*275 FILLER_0_0_225
*276 FILLER_0_0_237
*277 FILLER_0_0_249
*278 FILLER_0_0_253
*279 FILLER_0_0_265
*280 FILLER_0_0_27
*281 FILLER_0_0_277
*282 FILLER_0_0_281
*283 FILLER_0_0_29
*284 FILLER_0_0_293
*285 FILLER_0_0_3
*286 FILLER_0_0_305
*287 FILLER_0_0_309
*288 FILLER_0_0_321
*289 FILLER_0_0_333
*290 FILLER_0_0_337
*291 FILLER_0_0_349
*292 FILLER_0_0_41
*293 FILLER_0_0_53
*294 FILLER_0_0_57
*295 FILLER_0_0_69
*296 FILLER_0_0_81
*297 FILLER_0_0_85
*298 FILLER_0_0_97
*299 FILLER_0_10_109
*300 FILLER_0_10_121
*301 FILLER_0_10_133
*302 FILLER_0_10_139
*303 FILLER_0_10_141
*304 FILLER_0_10_15
*305 FILLER_0_10_153
*306 FILLER_0_10_165
*307 FILLER_0_10_177
*308 FILLER_0_10_189
*309 FILLER_0_10_195
*310 FILLER_0_10_197
*311 FILLER_0_10_209
*312 FILLER_0_10_221
*313 FILLER_0_10_233
*314 FILLER_0_10_245
*315 FILLER_0_10_251
*316 FILLER_0_10_253
*317 FILLER_0_10_265
*318 FILLER_0_10_27
*319 FILLER_0_10_277
*320 FILLER_0_10_289
*321 FILLER_0_10_29
*322 FILLER_0_10_3
*323 FILLER_0_10_301
*324 FILLER_0_10_307
*325 FILLER_0_10_309
*326 FILLER_0_10_321
*327 FILLER_0_10_333
*328 FILLER_0_10_345
*329 FILLER_0_10_41
*330 FILLER_0_10_53
*331 FILLER_0_10_65
*332 FILLER_0_10_77
*333 FILLER_0_10_83
*334 FILLER_0_10_85
*335 FILLER_0_10_97
*336 FILLER_0_11_105
*337 FILLER_0_11_111
*338 FILLER_0_11_113
*339 FILLER_0_11_125
*340 FILLER_0_11_137
*341 FILLER_0_11_149
*342 FILLER_0_11_15
*343 FILLER_0_11_161
*344 FILLER_0_11_167
*345 FILLER_0_11_169
*346 FILLER_0_11_181
*347 FILLER_0_11_193
*348 FILLER_0_11_205
*349 FILLER_0_11_217
*350 FILLER_0_11_223
*351 FILLER_0_11_225
*352 FILLER_0_11_237
*353 FILLER_0_11_249
*354 FILLER_0_11_261
*355 FILLER_0_11_27
*356 FILLER_0_11_273
*357 FILLER_0_11_279
*358 FILLER_0_11_281
*359 FILLER_0_11_293
*360 FILLER_0_11_3
*361 FILLER_0_11_305
*362 FILLER_0_11_317
*363 FILLER_0_11_329
*364 FILLER_0_11_335
*365 FILLER_0_11_337
*366 FILLER_0_11_349
*367 FILLER_0_11_39
*368 FILLER_0_11_51
*369 FILLER_0_11_55
*370 FILLER_0_11_57
*371 FILLER_0_11_69
*372 FILLER_0_11_81
*373 FILLER_0_11_93
*374 FILLER_0_12_109
*375 FILLER_0_12_121
*376 FILLER_0_12_133
*377 FILLER_0_12_139
*378 FILLER_0_12_141
*379 FILLER_0_12_15
*380 FILLER_0_12_153
*381 FILLER_0_12_165
*382 FILLER_0_12_177
*383 FILLER_0_12_189
*384 FILLER_0_12_195
*385 FILLER_0_12_197
*386 FILLER_0_12_209
*387 FILLER_0_12_221
*388 FILLER_0_12_233
*389 FILLER_0_12_245
*390 FILLER_0_12_251
*391 FILLER_0_12_253
*392 FILLER_0_12_265
*393 FILLER_0_12_27
*394 FILLER_0_12_277
*395 FILLER_0_12_289
*396 FILLER_0_12_29
*397 FILLER_0_12_3
*398 FILLER_0_12_301
*399 FILLER_0_12_307
*400 FILLER_0_12_309
*401 FILLER_0_12_321
*402 FILLER_0_12_333
*403 FILLER_0_12_345
*404 FILLER_0_12_41
*405 FILLER_0_12_53
*406 FILLER_0_12_65
*407 FILLER_0_12_77
*408 FILLER_0_12_83
*409 FILLER_0_12_85
*410 FILLER_0_12_97
*411 FILLER_0_13_105
*412 FILLER_0_13_111
*413 FILLER_0_13_113
*414 FILLER_0_13_125
*415 FILLER_0_13_137
*416 FILLER_0_13_149
*417 FILLER_0_13_15
*418 FILLER_0_13_161
*419 FILLER_0_13_167
*420 FILLER_0_13_169
*421 FILLER_0_13_181
*422 FILLER_0_13_193
*423 FILLER_0_13_205
*424 FILLER_0_13_217
*425 FILLER_0_13_223
*426 FILLER_0_13_225
*427 FILLER_0_13_237
*428 FILLER_0_13_249
*429 FILLER_0_13_261
*430 FILLER_0_13_27
*431 FILLER_0_13_273
*432 FILLER_0_13_279
*433 FILLER_0_13_281
*434 FILLER_0_13_293
*435 FILLER_0_13_3
*436 FILLER_0_13_305
*437 FILLER_0_13_317
*438 FILLER_0_13_329
*439 FILLER_0_13_335
*440 FILLER_0_13_337
*441 FILLER_0_13_349
*442 FILLER_0_13_39
*443 FILLER_0_13_51
*444 FILLER_0_13_55
*445 FILLER_0_13_57
*446 FILLER_0_13_69
*447 FILLER_0_13_81
*448 FILLER_0_13_93
*449 FILLER_0_14_109
*450 FILLER_0_14_121
*451 FILLER_0_14_133
*452 FILLER_0_14_139
*453 FILLER_0_14_141
*454 FILLER_0_14_15
*455 FILLER_0_14_153
*456 FILLER_0_14_165
*457 FILLER_0_14_177
*458 FILLER_0_14_189
*459 FILLER_0_14_195
*460 FILLER_0_14_197
*461 FILLER_0_14_209
*462 FILLER_0_14_221
*463 FILLER_0_14_233
*464 FILLER_0_14_245
*465 FILLER_0_14_251
*466 FILLER_0_14_253
*467 FILLER_0_14_265
*468 FILLER_0_14_27
*469 FILLER_0_14_277
*470 FILLER_0_14_289
*471 FILLER_0_14_29
*472 FILLER_0_14_3
*473 FILLER_0_14_301
*474 FILLER_0_14_307
*475 FILLER_0_14_309
*476 FILLER_0_14_321
*477 FILLER_0_14_333
*478 FILLER_0_14_345
*479 FILLER_0_14_41
*480 FILLER_0_14_53
*481 FILLER_0_14_65
*482 FILLER_0_14_77
*483 FILLER_0_14_83
*484 FILLER_0_14_85
*485 FILLER_0_14_97
*486 FILLER_0_15_105
*487 FILLER_0_15_111
*488 FILLER_0_15_113
*489 FILLER_0_15_125
*490 FILLER_0_15_137
*491 FILLER_0_15_149
*492 FILLER_0_15_15
*493 FILLER_0_15_161
*494 FILLER_0_15_167
*495 FILLER_0_15_169
*496 FILLER_0_15_181
*497 FILLER_0_15_193
*498 FILLER_0_15_205
*499 FILLER_0_15_217
*500 FILLER_0_15_223
*501 FILLER_0_15_225
*502 FILLER_0_15_237
*503 FILLER_0_15_249
*504 FILLER_0_15_261
*505 FILLER_0_15_27
*506 FILLER_0_15_273
*507 FILLER_0_15_279
*508 FILLER_0_15_281
*509 FILLER_0_15_293
*510 FILLER_0_15_3
*511 FILLER_0_15_305
*512 FILLER_0_15_317
*513 FILLER_0_15_329
*514 FILLER_0_15_335
*515 FILLER_0_15_337
*516 FILLER_0_15_349
*517 FILLER_0_15_39
*518 FILLER_0_15_51
*519 FILLER_0_15_55
*520 FILLER_0_15_57
*521 FILLER_0_15_69
*522 FILLER_0_15_81
*523 FILLER_0_15_93
*524 FILLER_0_16_109
*525 FILLER_0_16_121
*526 FILLER_0_16_133
*527 FILLER_0_16_139
*528 FILLER_0_16_141
*529 FILLER_0_16_15
*530 FILLER_0_16_153
*531 FILLER_0_16_165
*532 FILLER_0_16_177
*533 FILLER_0_16_189
*534 FILLER_0_16_195
*535 FILLER_0_16_197
*536 FILLER_0_16_209
*537 FILLER_0_16_221
*538 FILLER_0_16_233
*539 FILLER_0_16_245
*540 FILLER_0_16_251
*541 FILLER_0_16_253
*542 FILLER_0_16_265
*543 FILLER_0_16_27
*544 FILLER_0_16_277
*545 FILLER_0_16_289
*546 FILLER_0_16_29
*547 FILLER_0_16_3
*548 FILLER_0_16_301
*549 FILLER_0_16_307
*550 FILLER_0_16_309
*551 FILLER_0_16_321
*552 FILLER_0_16_333
*553 FILLER_0_16_345
*554 FILLER_0_16_41
*555 FILLER_0_16_53
*556 FILLER_0_16_65
*557 FILLER_0_16_77
*558 FILLER_0_16_83
*559 FILLER_0_16_85
*560 FILLER_0_16_97
*561 FILLER_0_17_105
*562 FILLER_0_17_111
*563 FILLER_0_17_113
*564 FILLER_0_17_125
*565 FILLER_0_17_137
*566 FILLER_0_17_149
*567 FILLER_0_17_15
*568 FILLER_0_17_161
*569 FILLER_0_17_167
*570 FILLER_0_17_169
*571 FILLER_0_17_181
*572 FILLER_0_17_193
*573 FILLER_0_17_205
*574 FILLER_0_17_217
*575 FILLER_0_17_223
*576 FILLER_0_17_225
*577 FILLER_0_17_237
*578 FILLER_0_17_249
*579 FILLER_0_17_261
*580 FILLER_0_17_27
*581 FILLER_0_17_273
*582 FILLER_0_17_279
*583 FILLER_0_17_281
*584 FILLER_0_17_293
*585 FILLER_0_17_3
*586 FILLER_0_17_305
*587 FILLER_0_17_317
*588 FILLER_0_17_329
*589 FILLER_0_17_335
*590 FILLER_0_17_337
*591 FILLER_0_17_349
*592 FILLER_0_17_39
*593 FILLER_0_17_51
*594 FILLER_0_17_55
*595 FILLER_0_17_57
*596 FILLER_0_17_69
*597 FILLER_0_17_81
*598 FILLER_0_17_93
*599 FILLER_0_18_109
*600 FILLER_0_18_121
*601 FILLER_0_18_133
*602 FILLER_0_18_139
*603 FILLER_0_18_141
*604 FILLER_0_18_15
*605 FILLER_0_18_153
*606 FILLER_0_18_165
*607 FILLER_0_18_177
*608 FILLER_0_18_189
*609 FILLER_0_18_195
*610 FILLER_0_18_197
*611 FILLER_0_18_209
*612 FILLER_0_18_221
*613 FILLER_0_18_233
*614 FILLER_0_18_245
*615 FILLER_0_18_251
*616 FILLER_0_18_253
*617 FILLER_0_18_265
*618 FILLER_0_18_27
*619 FILLER_0_18_277
*620 FILLER_0_18_289
*621 FILLER_0_18_29
*622 FILLER_0_18_3
*623 FILLER_0_18_301
*624 FILLER_0_18_307
*625 FILLER_0_18_309
*626 FILLER_0_18_321
*627 FILLER_0_18_333
*628 FILLER_0_18_345
*629 FILLER_0_18_41
*630 FILLER_0_18_53
*631 FILLER_0_18_65
*632 FILLER_0_18_77
*633 FILLER_0_18_83
*634 FILLER_0_18_85
*635 FILLER_0_18_97
*636 FILLER_0_19_105
*637 FILLER_0_19_111
*638 FILLER_0_19_113
*639 FILLER_0_19_125
*640 FILLER_0_19_137
*641 FILLER_0_19_149
*642 FILLER_0_19_15
*643 FILLER_0_19_161
*644 FILLER_0_19_167
*645 FILLER_0_19_169
*646 FILLER_0_19_181
*647 FILLER_0_19_193
*648 FILLER_0_19_205
*649 FILLER_0_19_217
*650 FILLER_0_19_223
*651 FILLER_0_19_225
*652 FILLER_0_19_237
*653 FILLER_0_19_249
*654 FILLER_0_19_261
*655 FILLER_0_19_27
*656 FILLER_0_19_273
*657 FILLER_0_19_279
*658 FILLER_0_19_281
*659 FILLER_0_19_293
*660 FILLER_0_19_3
*661 FILLER_0_19_305
*662 FILLER_0_19_317
*663 FILLER_0_19_329
*664 FILLER_0_19_335
*665 FILLER_0_19_337
*666 FILLER_0_19_349
*667 FILLER_0_19_39
*668 FILLER_0_19_51
*669 FILLER_0_19_55
*670 FILLER_0_19_57
*671 FILLER_0_19_69
*672 FILLER_0_19_81
*673 FILLER_0_19_93
*674 FILLER_0_1_105
*675 FILLER_0_1_111
*676 FILLER_0_1_113
*677 FILLER_0_1_125
*678 FILLER_0_1_137
*679 FILLER_0_1_149
*680 FILLER_0_1_15
*681 FILLER_0_1_161
*682 FILLER_0_1_167
*683 FILLER_0_1_169
*684 FILLER_0_1_181
*685 FILLER_0_1_193
*686 FILLER_0_1_205
*687 FILLER_0_1_217
*688 FILLER_0_1_223
*689 FILLER_0_1_225
*690 FILLER_0_1_237
*691 FILLER_0_1_249
*692 FILLER_0_1_261
*693 FILLER_0_1_27
*694 FILLER_0_1_273
*695 FILLER_0_1_279
*696 FILLER_0_1_281
*697 FILLER_0_1_293
*698 FILLER_0_1_3
*699 FILLER_0_1_305
*700 FILLER_0_1_317
*701 FILLER_0_1_329
*702 FILLER_0_1_335
*703 FILLER_0_1_337
*704 FILLER_0_1_349
*705 FILLER_0_1_39
*706 FILLER_0_1_51
*707 FILLER_0_1_55
*708 FILLER_0_1_57
*709 FILLER_0_1_69
*710 FILLER_0_1_81
*711 FILLER_0_1_93
*712 FILLER_0_20_109
*713 FILLER_0_20_121
*714 FILLER_0_20_133
*715 FILLER_0_20_139
*716 FILLER_0_20_141
*717 FILLER_0_20_15
*718 FILLER_0_20_153
*719 FILLER_0_20_165
*720 FILLER_0_20_177
*721 FILLER_0_20_189
*722 FILLER_0_20_195
*723 FILLER_0_20_197
*724 FILLER_0_20_209
*725 FILLER_0_20_221
*726 FILLER_0_20_233
*727 FILLER_0_20_245
*728 FILLER_0_20_251
*729 FILLER_0_20_253
*730 FILLER_0_20_265
*731 FILLER_0_20_27
*732 FILLER_0_20_277
*733 FILLER_0_20_289
*734 FILLER_0_20_29
*735 FILLER_0_20_3
*736 FILLER_0_20_301
*737 FILLER_0_20_307
*738 FILLER_0_20_309
*739 FILLER_0_20_321
*740 FILLER_0_20_333
*741 FILLER_0_20_345
*742 FILLER_0_20_41
*743 FILLER_0_20_53
*744 FILLER_0_20_65
*745 FILLER_0_20_77
*746 FILLER_0_20_83
*747 FILLER_0_20_85
*748 FILLER_0_20_97
*749 FILLER_0_21_105
*750 FILLER_0_21_111
*751 FILLER_0_21_113
*752 FILLER_0_21_125
*753 FILLER_0_21_137
*754 FILLER_0_21_149
*755 FILLER_0_21_15
*756 FILLER_0_21_161
*757 FILLER_0_21_167
*758 FILLER_0_21_169
*759 FILLER_0_21_181
*760 FILLER_0_21_193
*761 FILLER_0_21_205
*762 FILLER_0_21_217
*763 FILLER_0_21_223
*764 FILLER_0_21_225
*765 FILLER_0_21_237
*766 FILLER_0_21_249
*767 FILLER_0_21_261
*768 FILLER_0_21_27
*769 FILLER_0_21_273
*770 FILLER_0_21_279
*771 FILLER_0_21_281
*772 FILLER_0_21_293
*773 FILLER_0_21_3
*774 FILLER_0_21_305
*775 FILLER_0_21_317
*776 FILLER_0_21_329
*777 FILLER_0_21_335
*778 FILLER_0_21_337
*779 FILLER_0_21_349
*780 FILLER_0_21_39
*781 FILLER_0_21_51
*782 FILLER_0_21_55
*783 FILLER_0_21_57
*784 FILLER_0_21_69
*785 FILLER_0_21_81
*786 FILLER_0_21_93
*787 FILLER_0_22_109
*788 FILLER_0_22_121
*789 FILLER_0_22_133
*790 FILLER_0_22_139
*791 FILLER_0_22_141
*792 FILLER_0_22_15
*793 FILLER_0_22_153
*794 FILLER_0_22_165
*795 FILLER_0_22_177
*796 FILLER_0_22_189
*797 FILLER_0_22_195
*798 FILLER_0_22_197
*799 FILLER_0_22_209
*800 FILLER_0_22_221
*801 FILLER_0_22_233
*802 FILLER_0_22_245
*803 FILLER_0_22_251
*804 FILLER_0_22_253
*805 FILLER_0_22_265
*806 FILLER_0_22_27
*807 FILLER_0_22_277
*808 FILLER_0_22_289
*809 FILLER_0_22_29
*810 FILLER_0_22_3
*811 FILLER_0_22_301
*812 FILLER_0_22_307
*813 FILLER_0_22_309
*814 FILLER_0_22_321
*815 FILLER_0_22_333
*816 FILLER_0_22_345
*817 FILLER_0_22_41
*818 FILLER_0_22_53
*819 FILLER_0_22_65
*820 FILLER_0_22_77
*821 FILLER_0_22_83
*822 FILLER_0_22_85
*823 FILLER_0_22_97
*824 FILLER_0_23_105
*825 FILLER_0_23_111
*826 FILLER_0_23_113
*827 FILLER_0_23_125
*828 FILLER_0_23_137
*829 FILLER_0_23_149
*830 FILLER_0_23_15
*831 FILLER_0_23_161
*832 FILLER_0_23_167
*833 FILLER_0_23_169
*834 FILLER_0_23_181
*835 FILLER_0_23_193
*836 FILLER_0_23_205
*837 FILLER_0_23_217
*838 FILLER_0_23_223
*839 FILLER_0_23_225
*840 FILLER_0_23_237
*841 FILLER_0_23_249
*842 FILLER_0_23_261
*843 FILLER_0_23_27
*844 FILLER_0_23_273
*845 FILLER_0_23_279
*846 FILLER_0_23_281
*847 FILLER_0_23_293
*848 FILLER_0_23_3
*849 FILLER_0_23_305
*850 FILLER_0_23_317
*851 FILLER_0_23_329
*852 FILLER_0_23_335
*853 FILLER_0_23_337
*854 FILLER_0_23_349
*855 FILLER_0_23_39
*856 FILLER_0_23_51
*857 FILLER_0_23_55
*858 FILLER_0_23_57
*859 FILLER_0_23_69
*860 FILLER_0_23_81
*861 FILLER_0_23_93
*862 FILLER_0_24_109
*863 FILLER_0_24_121
*864 FILLER_0_24_133
*865 FILLER_0_24_139
*866 FILLER_0_24_141
*867 FILLER_0_24_15
*868 FILLER_0_24_153
*869 FILLER_0_24_165
*870 FILLER_0_24_177
*871 FILLER_0_24_189
*872 FILLER_0_24_195
*873 FILLER_0_24_197
*874 FILLER_0_24_209
*875 FILLER_0_24_221
*876 FILLER_0_24_233
*877 FILLER_0_24_245
*878 FILLER_0_24_251
*879 FILLER_0_24_253
*880 FILLER_0_24_265
*881 FILLER_0_24_27
*882 FILLER_0_24_277
*883 FILLER_0_24_289
*884 FILLER_0_24_29
*885 FILLER_0_24_3
*886 FILLER_0_24_301
*887 FILLER_0_24_307
*888 FILLER_0_24_309
*889 FILLER_0_24_321
*890 FILLER_0_24_333
*891 FILLER_0_24_345
*892 FILLER_0_24_41
*893 FILLER_0_24_53
*894 FILLER_0_24_65
*895 FILLER_0_24_77
*896 FILLER_0_24_83
*897 FILLER_0_24_85
*898 FILLER_0_24_97
*899 FILLER_0_25_105
*900 FILLER_0_25_111
*901 FILLER_0_25_113
*902 FILLER_0_25_125
*903 FILLER_0_25_137
*904 FILLER_0_25_149
*905 FILLER_0_25_15
*906 FILLER_0_25_161
*907 FILLER_0_25_167
*908 FILLER_0_25_169
*909 FILLER_0_25_181
*910 FILLER_0_25_193
*911 FILLER_0_25_205
*912 FILLER_0_25_217
*913 FILLER_0_25_223
*914 FILLER_0_25_225
*915 FILLER_0_25_237
*916 FILLER_0_25_249
*917 FILLER_0_25_261
*918 FILLER_0_25_27
*919 FILLER_0_25_273
*920 FILLER_0_25_279
*921 FILLER_0_25_281
*922 FILLER_0_25_293
*923 FILLER_0_25_3
*924 FILLER_0_25_305
*925 FILLER_0_25_317
*926 FILLER_0_25_329
*927 FILLER_0_25_335
*928 FILLER_0_25_337
*929 FILLER_0_25_349
*930 FILLER_0_25_39
*931 FILLER_0_25_51
*932 FILLER_0_25_55
*933 FILLER_0_25_57
*934 FILLER_0_25_69
*935 FILLER_0_25_81
*936 FILLER_0_25_93
*937 FILLER_0_26_109
*938 FILLER_0_26_121
*939 FILLER_0_26_133
*940 FILLER_0_26_139
*941 FILLER_0_26_141
*942 FILLER_0_26_15
*943 FILLER_0_26_153
*944 FILLER_0_26_165
*945 FILLER_0_26_177
*946 FILLER_0_26_189
*947 FILLER_0_26_195
*948 FILLER_0_26_197
*949 FILLER_0_26_209
*950 FILLER_0_26_221
*951 FILLER_0_26_233
*952 FILLER_0_26_245
*953 FILLER_0_26_251
*954 FILLER_0_26_253
*955 FILLER_0_26_265
*956 FILLER_0_26_27
*957 FILLER_0_26_277
*958 FILLER_0_26_289
*959 FILLER_0_26_29
*960 FILLER_0_26_3
*961 FILLER_0_26_301
*962 FILLER_0_26_307
*963 FILLER_0_26_309
*964 FILLER_0_26_321
*965 FILLER_0_26_333
*966 FILLER_0_26_345
*967 FILLER_0_26_41
*968 FILLER_0_26_53
*969 FILLER_0_26_65
*970 FILLER_0_26_77
*971 FILLER_0_26_83
*972 FILLER_0_26_85
*973 FILLER_0_26_97
*974 FILLER_0_27_105
*975 FILLER_0_27_111
*976 FILLER_0_27_113
*977 FILLER_0_27_125
*978 FILLER_0_27_137
*979 FILLER_0_27_145
*980 FILLER_0_27_15
*981 FILLER_0_27_154
*982 FILLER_0_27_166
*983 FILLER_0_27_169
*984 FILLER_0_27_177
*985 FILLER_0_27_186
*986 FILLER_0_27_198
*987 FILLER_0_27_210
*988 FILLER_0_27_219
*989 FILLER_0_27_223
*990 FILLER_0_27_225
*991 FILLER_0_27_245
*992 FILLER_0_27_257
*993 FILLER_0_27_261
*994 FILLER_0_27_27
*995 FILLER_0_27_278
*996 FILLER_0_27_281
*997 FILLER_0_27_299
*998 FILLER_0_27_3
*999 FILLER_0_27_324
*1000 FILLER_0_27_337
*1001 FILLER_0_27_349
*1002 FILLER_0_27_39
*1003 FILLER_0_27_51
*1004 FILLER_0_27_55
*1005 FILLER_0_27_57
*1006 FILLER_0_27_69
*1007 FILLER_0_27_81
*1008 FILLER_0_27_93
*1009 FILLER_0_28_109
*1010 FILLER_0_28_133
*1011 FILLER_0_28_141
*1012 FILLER_0_28_15
*1013 FILLER_0_28_172
*1014 FILLER_0_28_197
*1015 FILLER_0_28_211
*1016 FILLER_0_28_224
*1017 FILLER_0_28_236
*1018 FILLER_0_28_246
*1019 FILLER_0_28_253
*1020 FILLER_0_28_265
*1021 FILLER_0_28_27
*1022 FILLER_0_28_285
*1023 FILLER_0_28_29
*1024 FILLER_0_28_3
*1025 FILLER_0_28_302
*1026 FILLER_0_28_321
*1027 FILLER_0_28_333
*1028 FILLER_0_28_345
*1029 FILLER_0_28_41
*1030 FILLER_0_28_53
*1031 FILLER_0_28_65
*1032 FILLER_0_28_77
*1033 FILLER_0_28_83
*1034 FILLER_0_28_85
*1035 FILLER_0_28_97
*1036 FILLER_0_29_105
*1037 FILLER_0_29_111
*1038 FILLER_0_29_113
*1039 FILLER_0_29_126
*1040 FILLER_0_29_138
*1041 FILLER_0_29_15
*1042 FILLER_0_29_165
*1043 FILLER_0_29_169
*1044 FILLER_0_29_181
*1045 FILLER_0_29_192
*1046 FILLER_0_29_199
*1047 FILLER_0_29_211
*1048 FILLER_0_29_215
*1049 FILLER_0_29_223
*1050 FILLER_0_29_241
*1051 FILLER_0_29_258
*1052 FILLER_0_29_27
*1053 FILLER_0_29_289
*1054 FILLER_0_29_294
*1055 FILLER_0_29_3
*1056 FILLER_0_29_306
*1057 FILLER_0_29_337
*1058 FILLER_0_29_348
*1059 FILLER_0_29_39
*1060 FILLER_0_29_51
*1061 FILLER_0_29_55
*1062 FILLER_0_29_57
*1063 FILLER_0_29_69
*1064 FILLER_0_29_81
*1065 FILLER_0_29_93
*1066 FILLER_0_2_109
*1067 FILLER_0_2_121
*1068 FILLER_0_2_133
*1069 FILLER_0_2_139
*1070 FILLER_0_2_141
*1071 FILLER_0_2_15
*1072 FILLER_0_2_153
*1073 FILLER_0_2_165
*1074 FILLER_0_2_177
*1075 FILLER_0_2_189
*1076 FILLER_0_2_195
*1077 FILLER_0_2_197
*1078 FILLER_0_2_209
*1079 FILLER_0_2_221
*1080 FILLER_0_2_233
*1081 FILLER_0_2_245
*1082 FILLER_0_2_251
*1083 FILLER_0_2_253
*1084 FILLER_0_2_265
*1085 FILLER_0_2_27
*1086 FILLER_0_2_277
*1087 FILLER_0_2_289
*1088 FILLER_0_2_29
*1089 FILLER_0_2_3
*1090 FILLER_0_2_301
*1091 FILLER_0_2_307
*1092 FILLER_0_2_309
*1093 FILLER_0_2_321
*1094 FILLER_0_2_333
*1095 FILLER_0_2_345
*1096 FILLER_0_2_41
*1097 FILLER_0_2_53
*1098 FILLER_0_2_65
*1099 FILLER_0_2_77
*1100 FILLER_0_2_83
*1101 FILLER_0_2_85
*1102 FILLER_0_2_97
*1103 FILLER_0_30_101
*1104 FILLER_0_30_105
*1105 FILLER_0_30_117
*1106 FILLER_0_30_125
*1107 FILLER_0_30_136
*1108 FILLER_0_30_149
*1109 FILLER_0_30_15
*1110 FILLER_0_30_183
*1111 FILLER_0_30_216
*1112 FILLER_0_30_228
*1113 FILLER_0_30_232
*1114 FILLER_0_30_236
*1115 FILLER_0_30_251
*1116 FILLER_0_30_27
*1117 FILLER_0_30_29
*1118 FILLER_0_30_3
*1119 FILLER_0_30_301
*1120 FILLER_0_30_322
*1121 FILLER_0_30_328
*1122 FILLER_0_30_41
*1123 FILLER_0_30_53
*1124 FILLER_0_30_65
*1125 FILLER_0_30_77
*1126 FILLER_0_30_83
*1127 FILLER_0_30_85
*1128 FILLER_0_30_97
*1129 FILLER_0_31_113
*1130 FILLER_0_31_121
*1131 FILLER_0_31_135
*1132 FILLER_0_31_143
*1133 FILLER_0_31_15
*1134 FILLER_0_31_152
*1135 FILLER_0_31_164
*1136 FILLER_0_31_169
*1137 FILLER_0_31_181
*1138 FILLER_0_31_189
*1139 FILLER_0_31_198
*1140 FILLER_0_31_210
*1141 FILLER_0_31_222
*1142 FILLER_0_31_230
*1143 FILLER_0_31_242
*1144 FILLER_0_31_248
*1145 FILLER_0_31_252
*1146 FILLER_0_31_260
*1147 FILLER_0_31_266
*1148 FILLER_0_31_27
*1149 FILLER_0_31_270
*1150 FILLER_0_31_274
*1151 FILLER_0_31_281
*1152 FILLER_0_31_296
*1153 FILLER_0_31_3
*1154 FILLER_0_31_308
*1155 FILLER_0_31_324
*1156 FILLER_0_31_334
*1157 FILLER_0_31_337
*1158 FILLER_0_31_349
*1159 FILLER_0_31_39
*1160 FILLER_0_31_51
*1161 FILLER_0_31_55
*1162 FILLER_0_31_57
*1163 FILLER_0_31_69
*1164 FILLER_0_31_81
*1165 FILLER_0_31_93
*1166 FILLER_0_32_103
*1167 FILLER_0_32_115
*1168 FILLER_0_32_119
*1169 FILLER_0_32_123
*1170 FILLER_0_32_130
*1171 FILLER_0_32_139
*1172 FILLER_0_32_141
*1173 FILLER_0_32_15
*1174 FILLER_0_32_161
*1175 FILLER_0_32_181
*1176 FILLER_0_32_194
*1177 FILLER_0_32_197
*1178 FILLER_0_32_209
*1179 FILLER_0_32_218
*1180 FILLER_0_32_226
*1181 FILLER_0_32_230
*1182 FILLER_0_32_247
*1183 FILLER_0_32_251
*1184 FILLER_0_32_258
*1185 FILLER_0_32_27
*1186 FILLER_0_32_279
*1187 FILLER_0_32_29
*1188 FILLER_0_32_3
*1189 FILLER_0_32_304
*1190 FILLER_0_32_323
*1191 FILLER_0_32_328
*1192 FILLER_0_32_334
*1193 FILLER_0_32_41
*1194 FILLER_0_32_53
*1195 FILLER_0_32_65
*1196 FILLER_0_32_77
*1197 FILLER_0_32_83
*1198 FILLER_0_32_85
*1199 FILLER_0_32_97
*1200 FILLER_0_33_113
*1201 FILLER_0_33_125
*1202 FILLER_0_33_137
*1203 FILLER_0_33_146
*1204 FILLER_0_33_15
*1205 FILLER_0_33_157
*1206 FILLER_0_33_165
*1207 FILLER_0_33_172
*1208 FILLER_0_33_189
*1209 FILLER_0_33_197
*1210 FILLER_0_33_205
*1211 FILLER_0_33_251
*1212 FILLER_0_33_263
*1213 FILLER_0_33_27
*1214 FILLER_0_33_275
*1215 FILLER_0_33_290
*1216 FILLER_0_33_3
*1217 FILLER_0_33_302
*1218 FILLER_0_33_314
*1219 FILLER_0_33_327
*1220 FILLER_0_33_337
*1221 FILLER_0_33_341
*1222 FILLER_0_33_350
*1223 FILLER_0_33_39
*1224 FILLER_0_33_51
*1225 FILLER_0_33_55
*1226 FILLER_0_33_57
*1227 FILLER_0_33_69
*1228 FILLER_0_33_81
*1229 FILLER_0_33_93
*1230 FILLER_0_34_103
*1231 FILLER_0_34_137
*1232 FILLER_0_34_141
*1233 FILLER_0_34_15
*1234 FILLER_0_34_162
*1235 FILLER_0_34_168
*1236 FILLER_0_34_173
*1237 FILLER_0_34_185
*1238 FILLER_0_34_193
*1239 FILLER_0_34_203
*1240 FILLER_0_34_216
*1241 FILLER_0_34_228
*1242 FILLER_0_34_249
*1243 FILLER_0_34_253
*1244 FILLER_0_34_27
*1245 FILLER_0_34_29
*1246 FILLER_0_34_292
*1247 FILLER_0_34_3
*1248 FILLER_0_34_300
*1249 FILLER_0_34_307
*1250 FILLER_0_34_309
*1251 FILLER_0_34_313
*1252 FILLER_0_34_319
*1253 FILLER_0_34_350
*1254 FILLER_0_34_41
*1255 FILLER_0_34_53
*1256 FILLER_0_34_65
*1257 FILLER_0_34_77
*1258 FILLER_0_34_83
*1259 FILLER_0_34_85
*1260 FILLER_0_34_97
*1261 FILLER_0_35_119
*1262 FILLER_0_35_123
*1263 FILLER_0_35_143
*1264 FILLER_0_35_15
*1265 FILLER_0_35_162
*1266 FILLER_0_35_193
*1267 FILLER_0_35_214
*1268 FILLER_0_35_220
*1269 FILLER_0_35_233
*1270 FILLER_0_35_245
*1271 FILLER_0_35_27
*1272 FILLER_0_35_277
*1273 FILLER_0_35_291
*1274 FILLER_0_35_3
*1275 FILLER_0_35_300
*1276 FILLER_0_35_308
*1277 FILLER_0_35_315
*1278 FILLER_0_35_321
*1279 FILLER_0_35_325
*1280 FILLER_0_35_333
*1281 FILLER_0_35_345
*1282 FILLER_0_35_39
*1283 FILLER_0_35_51
*1284 FILLER_0_35_55
*1285 FILLER_0_35_57
*1286 FILLER_0_35_69
*1287 FILLER_0_35_81
*1288 FILLER_0_35_93
*1289 FILLER_0_36_103
*1290 FILLER_0_36_115
*1291 FILLER_0_36_120
*1292 FILLER_0_36_132
*1293 FILLER_0_36_141
*1294 FILLER_0_36_15
*1295 FILLER_0_36_153
*1296 FILLER_0_36_161
*1297 FILLER_0_36_170
*1298 FILLER_0_36_178
*1299 FILLER_0_36_194
*1300 FILLER_0_36_197
*1301 FILLER_0_36_204
*1302 FILLER_0_36_216
*1303 FILLER_0_36_222
*1304 FILLER_0_36_229
*1305 FILLER_0_36_241
*1306 FILLER_0_36_249
*1307 FILLER_0_36_253
*1308 FILLER_0_36_267
*1309 FILLER_0_36_27
*1310 FILLER_0_36_279
*1311 FILLER_0_36_287
*1312 FILLER_0_36_29
*1313 FILLER_0_36_294
*1314 FILLER_0_36_3
*1315 FILLER_0_36_306
*1316 FILLER_0_36_312
*1317 FILLER_0_36_319
*1318 FILLER_0_36_330
*1319 FILLER_0_36_342
*1320 FILLER_0_36_350
*1321 FILLER_0_36_41
*1322 FILLER_0_36_53
*1323 FILLER_0_36_65
*1324 FILLER_0_36_77
*1325 FILLER_0_36_83
*1326 FILLER_0_36_85
*1327 FILLER_0_36_97
*1328 FILLER_0_37_113
*1329 FILLER_0_37_127
*1330 FILLER_0_37_139
*1331 FILLER_0_37_15
*1332 FILLER_0_37_162
*1333 FILLER_0_37_169
*1334 FILLER_0_37_181
*1335 FILLER_0_37_193
*1336 FILLER_0_37_205
*1337 FILLER_0_37_219
*1338 FILLER_0_37_223
*1339 FILLER_0_37_27
*1340 FILLER_0_37_270
*1341 FILLER_0_37_278
*1342 FILLER_0_37_3
*1343 FILLER_0_37_309
*1344 FILLER_0_37_316
*1345 FILLER_0_37_337
*1346 FILLER_0_37_349
*1347 FILLER_0_37_39
*1348 FILLER_0_37_51
*1349 FILLER_0_37_55
*1350 FILLER_0_37_57
*1351 FILLER_0_37_69
*1352 FILLER_0_37_81
*1353 FILLER_0_37_93
*1354 FILLER_0_38_104
*1355 FILLER_0_38_110
*1356 FILLER_0_38_113
*1357 FILLER_0_38_135
*1358 FILLER_0_38_141
*1359 FILLER_0_38_15
*1360 FILLER_0_38_172
*1361 FILLER_0_38_192
*1362 FILLER_0_38_214
*1363 FILLER_0_38_222
*1364 FILLER_0_38_242
*1365 FILLER_0_38_250
*1366 FILLER_0_38_261
*1367 FILLER_0_38_27
*1368 FILLER_0_38_278
*1369 FILLER_0_38_29
*1370 FILLER_0_38_297
*1371 FILLER_0_38_3
*1372 FILLER_0_38_333
*1373 FILLER_0_38_337
*1374 FILLER_0_38_349
*1375 FILLER_0_38_41
*1376 FILLER_0_38_53
*1377 FILLER_0_38_57
*1378 FILLER_0_38_68
*1379 FILLER_0_38_74
*1380 FILLER_0_38_80
*1381 FILLER_0_38_88
*1382 FILLER_0_38_92
*1383 FILLER_0_38_98
*1384 FILLER_0_3_105
*1385 FILLER_0_3_111
*1386 FILLER_0_3_113
*1387 FILLER_0_3_125
*1388 FILLER_0_3_137
*1389 FILLER_0_3_149
*1390 FILLER_0_3_15
*1391 FILLER_0_3_161
*1392 FILLER_0_3_167
*1393 FILLER_0_3_169
*1394 FILLER_0_3_181
*1395 FILLER_0_3_193
*1396 FILLER_0_3_205
*1397 FILLER_0_3_217
*1398 FILLER_0_3_223
*1399 FILLER_0_3_225
*1400 FILLER_0_3_237
*1401 FILLER_0_3_249
*1402 FILLER_0_3_261
*1403 FILLER_0_3_27
*1404 FILLER_0_3_273
*1405 FILLER_0_3_279
*1406 FILLER_0_3_281
*1407 FILLER_0_3_293
*1408 FILLER_0_3_3
*1409 FILLER_0_3_305
*1410 FILLER_0_3_317
*1411 FILLER_0_3_329
*1412 FILLER_0_3_335
*1413 FILLER_0_3_337
*1414 FILLER_0_3_349
*1415 FILLER_0_3_39
*1416 FILLER_0_3_51
*1417 FILLER_0_3_55
*1418 FILLER_0_3_57
*1419 FILLER_0_3_69
*1420 FILLER_0_3_81
*1421 FILLER_0_3_93
*1422 FILLER_0_4_109
*1423 FILLER_0_4_121
*1424 FILLER_0_4_133
*1425 FILLER_0_4_139
*1426 FILLER_0_4_141
*1427 FILLER_0_4_15
*1428 FILLER_0_4_153
*1429 FILLER_0_4_165
*1430 FILLER_0_4_177
*1431 FILLER_0_4_189
*1432 FILLER_0_4_195
*1433 FILLER_0_4_197
*1434 FILLER_0_4_209
*1435 FILLER_0_4_221
*1436 FILLER_0_4_233
*1437 FILLER_0_4_245
*1438 FILLER_0_4_251
*1439 FILLER_0_4_253
*1440 FILLER_0_4_265
*1441 FILLER_0_4_27
*1442 FILLER_0_4_277
*1443 FILLER_0_4_289
*1444 FILLER_0_4_29
*1445 FILLER_0_4_3
*1446 FILLER_0_4_301
*1447 FILLER_0_4_307
*1448 FILLER_0_4_309
*1449 FILLER_0_4_321
*1450 FILLER_0_4_333
*1451 FILLER_0_4_345
*1452 FILLER_0_4_41
*1453 FILLER_0_4_53
*1454 FILLER_0_4_65
*1455 FILLER_0_4_77
*1456 FILLER_0_4_83
*1457 FILLER_0_4_85
*1458 FILLER_0_4_97
*1459 FILLER_0_5_105
*1460 FILLER_0_5_111
*1461 FILLER_0_5_113
*1462 FILLER_0_5_125
*1463 FILLER_0_5_137
*1464 FILLER_0_5_149
*1465 FILLER_0_5_15
*1466 FILLER_0_5_161
*1467 FILLER_0_5_167
*1468 FILLER_0_5_169
*1469 FILLER_0_5_181
*1470 FILLER_0_5_193
*1471 FILLER_0_5_205
*1472 FILLER_0_5_217
*1473 FILLER_0_5_223
*1474 FILLER_0_5_225
*1475 FILLER_0_5_237
*1476 FILLER_0_5_249
*1477 FILLER_0_5_261
*1478 FILLER_0_5_27
*1479 FILLER_0_5_273
*1480 FILLER_0_5_279
*1481 FILLER_0_5_281
*1482 FILLER_0_5_293
*1483 FILLER_0_5_3
*1484 FILLER_0_5_305
*1485 FILLER_0_5_317
*1486 FILLER_0_5_329
*1487 FILLER_0_5_335
*1488 FILLER_0_5_337
*1489 FILLER_0_5_349
*1490 FILLER_0_5_39
*1491 FILLER_0_5_51
*1492 FILLER_0_5_55
*1493 FILLER_0_5_57
*1494 FILLER_0_5_69
*1495 FILLER_0_5_81
*1496 FILLER_0_5_93
*1497 FILLER_0_6_109
*1498 FILLER_0_6_121
*1499 FILLER_0_6_133
*1500 FILLER_0_6_139
*1501 FILLER_0_6_141
*1502 FILLER_0_6_15
*1503 FILLER_0_6_153
*1504 FILLER_0_6_165
*1505 FILLER_0_6_177
*1506 FILLER_0_6_189
*1507 FILLER_0_6_195
*1508 FILLER_0_6_197
*1509 FILLER_0_6_209
*1510 FILLER_0_6_221
*1511 FILLER_0_6_233
*1512 FILLER_0_6_245
*1513 FILLER_0_6_251
*1514 FILLER_0_6_253
*1515 FILLER_0_6_265
*1516 FILLER_0_6_27
*1517 FILLER_0_6_277
*1518 FILLER_0_6_289
*1519 FILLER_0_6_29
*1520 FILLER_0_6_3
*1521 FILLER_0_6_301
*1522 FILLER_0_6_307