*SPEF "ieee 1481-1999"
*DESIGN "tt_um_ja1tye_sound_generator"
*DATE "11:11:11 Fri 11 11, 1111"
*VENDOR "OpenRCX"
*PROGRAM "Parallel Extraction"
*VERSION "1.0"
*DESIGN_FLOW "NAME_SCOPE LOCAL" "PIN_CAP NONE"
*DIVIDER /
*DELIMITER :
*BUS_DELIMITER []
*T_UNIT 1 NS
*C_UNIT 1 PF
*R_UNIT 1 OHM
*L_UNIT 1 HENRY

*NAME_MAP
*3 clk
*4 ena
*5 rst_n
*6 ui_in[0]
*7 ui_in[1]
*8 ui_in[2]
*9 ui_in[3]
*10 ui_in[4]
*11 ui_in[5]
*12 ui_in[6]
*13 ui_in[7]
*14 uio_in[0]
*15 uio_in[1]
*16 uio_in[2]
*17 uio_in[3]
*18 uio_in[4]
*19 uio_in[5]
*20 uio_in[6]
*21 uio_in[7]
*22 net6
*23 net7
*24 net8
*25 net9
*26 net10
*27 net11
*28 net12
*29 net13
*30 net14
*31 net15
*32 net16
*33 net17
*34 net18
*35 net19
*36 net20
*37 net21
*38 uo_out[0]
*39 uo_out[1]
*40 uo_out[2]
*41 net22
*42 net23
*43 net24
*44 net25
*45 net26
*46 _0000_
*47 _0001_
*48 _0002_
*49 _0003_
*50 _0004_
*51 _0005_
*52 _0006_
*53 _0007_
*54 _0008_
*55 _0009_
*56 _0010_
*57 _0011_
*58 _0012_
*59 _0013_
*60 _0014_
*61 _0015_
*62 _0016_
*63 _0017_
*64 _0018_
*65 _0019_
*66 _0020_
*67 _0021_
*68 _0022_
*69 _0023_
*70 _0024_
*71 _0025_
*72 _0026_
*73 _0027_
*74 _0028_
*75 _0029_
*76 _0030_
*77 _0031_
*78 _0032_
*79 _0033_
*80 _0034_
*81 _0035_
*82 _0036_
*83 _0037_
*84 _0038_
*85 _0039_
*86 _0040_
*87 _0041_
*88 _0042_
*89 _0043_
*90 _0044_
*91 _0045_
*92 _0046_
*93 _0047_
*94 _0048_
*95 _0049_
*96 _0050_
*97 _0051_
*98 _0052_
*99 _0053_
*100 _0054_
*101 _0055_
*102 _0056_
*103 _0057_
*104 _0058_
*105 _0059_
*106 _0060_
*107 _0061_
*108 _0062_
*109 _0063_
*110 _0064_
*111 _0065_
*112 _0066_
*113 _0067_
*114 _0068_
*115 _0069_
*116 _0070_
*117 _0071_
*118 _0072_
*119 _0073_
*120 _0074_
*121 _0075_
*122 _0076_
*123 _0077_
*124 _0078_
*125 _0079_
*126 _0080_
*127 _0081_
*128 _0082_
*129 _0083_
*130 _0084_
*131 _0085_
*132 _0086_
*133 _0087_
*134 _0088_
*135 _0089_
*136 _0090_
*137 _0091_
*138 _0092_
*139 _0093_
*140 _0094_
*141 _0095_
*142 _0096_
*143 _0097_
*144 _0098_
*145 _0099_
*146 _0100_
*147 _0101_
*148 _0102_
*149 _0103_
*150 _0104_
*151 _0105_
*152 _0106_
*153 _0107_
*154 _0108_
*155 _0109_
*156 _0110_
*157 _0111_
*158 _0112_
*159 _0113_
*160 _0114_
*161 _0115_
*162 _0116_
*163 _0117_
*164 _0118_
*165 _0119_
*166 _0120_
*167 _0121_
*168 _0122_
*169 _0123_
*170 _0124_
*171 _0125_
*172 _0126_
*173 _0127_
*174 _0128_
*175 _0129_
*176 _0130_
*177 _0131_
*178 _0132_
*179 _0133_
*180 _0134_
*181 _0135_
*182 _0136_
*183 _0137_
*184 _0138_
*185 _0139_
*186 _0140_
*187 _0141_
*188 _0142_
*189 _0143_
*190 _0144_
*191 _0145_
*192 _0146_
*193 _0147_
*194 _0148_
*195 _0149_
*196 _0150_
*197 _0151_
*198 _0152_
*199 _0153_
*200 _0154_
*201 _0155_
*202 _0156_
*203 _0157_
*204 _0158_
*205 _0159_
*206 _0160_
*207 _0161_
*208 _0162_
*209 _0163_
*210 _0164_
*211 _0165_
*212 _0166_
*213 _0167_
*214 _0168_
*215 _0169_
*216 _0170_
*217 _0171_
*218 _0172_
*219 _0173_
*220 _0174_
*221 _0175_
*222 _0176_
*223 _0177_
*224 _0178_
*225 _0179_
*226 _0180_
*227 _0181_
*228 _0182_
*229 _0183_
*230 _0184_
*231 _0185_
*232 _0186_
*233 _0187_
*234 _0188_
*235 _0189_
*236 _0190_
*237 _0191_
*238 _0192_
*239 _0193_
*240 _0194_
*241 _0195_
*242 _0196_
*243 _0197_
*244 _0198_
*245 _0199_
*246 _0200_
*247 _0201_
*248 _0202_
*249 _0203_
*250 _0204_
*251 _0205_
*252 _0206_
*253 _0207_
*254 _0208_
*255 _0209_
*256 _0210_
*257 _0211_
*258 _0212_
*259 _0213_
*260 _0214_
*261 _0215_
*262 _0216_
*263 _0217_
*264 _0218_
*265 _0219_
*266 _0220_
*267 _0221_
*268 _0222_
*269 _0223_
*270 _0224_
*271 _0225_
*272 _0226_
*273 _0227_
*274 _0228_
*275 _0229_
*276 _0230_
*277 _0231_
*278 _0232_
*279 _0233_
*280 _0234_
*281 _0235_
*282 _0236_
*283 _0237_
*284 _0238_
*285 _0239_
*286 _0240_
*287 _0241_
*288 _0242_
*289 _0243_
*290 _0244_
*291 _0245_
*292 _0246_
*293 _0247_
*294 _0248_
*295 _0249_
*296 _0250_
*297 _0251_
*298 _0252_
*299 _0253_
*300 _0254_
*301 _0255_
*302 _0256_
*303 _0257_
*304 _0258_
*305 _0259_
*306 _0260_
*307 _0261_
*308 _0262_
*309 _0263_
*310 _0264_
*311 _0265_
*312 _0266_
*313 _0267_
*314 _0268_
*315 _0269_
*316 _0270_
*317 _0271_
*318 _0272_
*319 _0273_
*320 _0274_
*321 _0275_
*322 _0276_
*323 _0277_
*324 _0278_
*325 _0279_
*326 _0280_
*327 _0281_
*328 _0282_
*329 _0283_
*330 _0284_
*331 _0285_
*332 _0286_
*333 _0287_
*334 _0288_
*335 _0289_
*336 _0290_
*337 _0291_
*338 _0292_
*339 _0293_
*340 _0294_
*341 _0295_
*342 _0296_
*343 _0297_
*344 _0298_
*345 _0299_
*346 _0300_
*347 _0301_
*348 _0302_
*349 _0303_
*350 _0304_
*351 _0305_
*352 _0306_
*353 _0307_
*354 _0308_
*355 _0309_
*356 _0310_
*357 _0311_
*358 _0312_
*359 _0313_
*360 _0314_
*361 _0315_
*362 _0316_
*363 _0317_
*364 _0318_
*365 _0319_
*366 _0320_
*367 _0321_
*368 _0322_
*369 _0323_
*370 _0324_
*371 _0325_
*372 _0326_
*373 _0327_
*374 _0328_
*375 _0329_
*376 _0330_
*377 _0331_
*378 _0332_
*379 _0333_
*380 _0334_
*381 _0335_
*382 _0336_
*383 _0337_
*384 _0338_
*385 _0339_
*386 _0340_
*387 _0341_
*388 _0342_
*389 _0343_
*390 _0344_
*391 _0345_
*392 _0346_
*393 _0347_
*394 _0348_
*395 _0349_
*396 _0350_
*397 _0351_
*398 _0352_
*399 _0353_
*400 _0354_
*401 _0355_
*402 _0356_
*403 _0357_
*404 _0358_
*405 _0359_
*406 _0360_
*407 _0361_
*408 _0362_
*409 _0363_
*410 _0364_
*411 _0365_
*412 _0366_
*413 _0367_
*414 _0368_
*415 _0369_
*416 _0370_
*417 _0371_
*418 _0372_
*419 _0373_
*420 _0374_
*421 _0375_
*422 _0376_
*423 _0377_
*424 _0378_
*425 _0379_
*426 _0380_
*427 _0381_
*428 _0382_
*429 _0383_
*430 _0384_
*431 _0385_
*432 _0386_
*433 _0387_
*434 _0388_
*435 _0389_
*436 _0390_
*437 _0391_
*438 _0392_
*439 _0393_
*440 _0394_
*441 _0395_
*442 _0396_
*443 _0397_
*444 _0398_
*445 _0399_
*446 _0400_
*447 _0401_
*448 _0402_
*449 _0403_
*450 _0404_
*451 _0405_
*452 _0406_
*453 _0407_
*454 _0408_
*455 _0409_
*456 _0410_
*457 _0411_
*458 _0412_
*459 _0413_
*460 _0414_
*461 _0415_
*462 _0416_
*463 _0417_
*464 _0418_
*465 _0419_
*466 _0420_
*467 _0421_
*468 _0422_
*469 _0423_
*470 _0424_
*471 _0425_
*472 _0426_
*473 _0427_
*474 _0428_
*475 _0429_
*476 _0430_
*477 _0431_
*478 _0432_
*479 _0433_
*480 _0434_
*481 _0435_
*482 _0436_
*483 _0437_
*484 _0438_
*485 _0439_
*486 _0440_
*487 _0441_
*488 _0442_
*489 _0443_
*490 _0444_
*491 _0445_
*492 _0446_
*493 _0447_
*494 _0448_
*495 _0449_
*496 _0450_
*497 _0451_
*498 _0452_
*499 _0453_
*500 _0454_
*501 _0455_
*502 _0456_
*503 _0457_
*504 _0458_
*505 _0459_
*506 _0460_
*507 _0461_
*508 _0462_
*509 _0463_
*510 _0464_
*511 _0465_
*512 _0466_
*513 _0467_
*514 _0468_
*515 _0469_
*516 _0470_
*517 _0471_
*518 _0472_
*519 _0473_
*520 _0474_
*521 _0475_
*522 _0476_
*523 _0477_
*524 _0478_
*525 _0479_
*526 _0480_
*527 _0481_
*528 _0482_
*529 _0483_
*530 _0484_
*531 _0485_
*532 _0486_
*533 _0487_
*534 _0488_
*535 _0489_
*536 _0490_
*537 _0491_
*538 _0492_
*539 _0493_
*540 _0494_
*541 _0495_
*542 _0496_
*543 _0497_
*544 _0498_
*545 _0499_
*546 _0500_
*547 _0501_
*548 _0502_
*549 _0503_
*550 _0504_
*551 _0505_
*552 _0506_
*553 _0507_
*554 _0508_
*555 _0509_
*556 _0510_
*557 _0511_
*558 _0512_
*559 _0513_
*560 _0514_
*561 _0515_
*562 _0516_
*563 _0517_
*564 _0518_
*565 _0519_
*566 _0520_
*567 _0521_
*568 _0522_
*569 _0523_
*570 _0524_
*571 _0525_
*572 _0526_
*573 _0527_
*574 _0528_
*575 _0529_
*576 _0530_
*577 _0531_
*578 _0532_
*579 _0533_
*580 _0534_
*581 _0535_
*582 _0536_
*583 _0537_
*584 _0538_
*585 _0539_
*586 _0540_
*587 _0541_
*588 _0542_
*589 _0543_
*590 _0544_
*591 _0545_
*592 _0546_
*593 _0547_
*594 _0548_
*595 _0549_
*596 _0550_
*597 _0551_
*598 _0552_
*599 _0553_
*600 _0554_
*601 _0555_
*602 _0556_
*603 _0557_
*604 _0558_
*605 _0559_
*606 _0560_
*607 _0561_
*608 _0562_
*609 _0563_
*610 _0564_
*611 _0565_
*612 _0566_
*613 _0567_
*614 _0568_
*615 _0569_
*616 _0570_
*617 _0571_
*618 _0572_
*619 _0573_
*620 _0574_
*621 _0575_
*622 _0576_
*623 _0577_
*624 _0578_
*625 _0579_
*626 _0580_
*627 _0581_
*628 _0582_
*629 _0583_
*630 _0584_
*631 _0585_
*632 _0586_
*633 _0587_
*634 _0588_
*635 _0589_
*636 _0590_
*637 _0591_
*638 _0592_
*639 _0593_
*640 _0594_
*641 _0595_
*642 _0596_
*643 _0597_
*644 _0598_
*645 _0599_
*646 _0600_
*647 _0601_
*648 _0602_
*649 _0603_
*650 _0604_
*651 _0605_
*652 _0606_
*653 _0607_
*654 _0608_
*655 _0609_
*656 _0610_
*657 _0611_
*658 _0612_
*659 _0613_
*660 _0614_
*661 _0615_
*662 _0616_
*663 _0617_
*664 _0618_
*665 _0619_
*666 _0620_
*667 _0621_
*668 _0622_
*669 _0623_
*670 _0624_
*671 _0625_
*672 _0626_
*673 _0627_
*674 _0628_
*675 _0629_
*676 _0630_
*677 _0631_
*678 _0632_
*679 _0633_
*680 _0634_
*681 _0635_
*682 _0636_
*683 _0637_
*684 _0638_
*685 _0639_
*686 _0640_
*687 _0641_
*688 _0642_
*689 _0643_
*690 _0644_
*691 _0645_
*692 _0646_
*693 _0647_
*694 _0648_
*695 _0649_
*696 _0650_
*697 _0651_
*698 _0652_
*699 _0653_
*700 _0654_
*701 _0655_
*702 _0656_
*703 _0657_
*704 _0658_
*705 _0659_
*706 _0660_
*707 _0661_
*708 _0662_
*709 _0663_
*710 _0664_
*711 _0665_
*712 _0666_
*713 _0667_
*714 _0668_
*715 _0669_
*716 _0670_
*717 _0671_
*718 _0672_
*719 _0673_
*720 _0674_
*721 _0675_
*722 _0676_
*723 _0677_
*724 _0678_
*725 _0679_
*726 _0680_
*727 _0681_
*728 _0682_
*729 _0683_
*730 _0684_
*731 _0685_
*732 _0686_
*733 _0687_
*734 _0688_
*735 _0689_
*736 _0690_
*737 _0691_
*738 _0692_
*739 _0693_
*740 _0694_
*741 _0695_
*742 _0696_
*743 _0697_
*744 _0698_
*745 _0699_
*746 _0700_
*747 _0701_
*748 _0702_
*749 _0703_
*750 _0704_
*751 _0705_
*752 _0706_
*753 _0707_
*754 _0708_
*755 _0709_
*756 _0710_
*757 _0711_
*758 _0712_
*759 _0713_
*760 _0714_
*761 _0715_
*762 _0716_
*763 _0717_
*764 _0718_
*765 _0719_
*766 _0720_
*767 _0721_
*768 _0722_
*769 _0723_
*770 _0724_
*771 _0725_
*772 _0726_
*773 _0727_
*774 _0728_
*775 _0729_
*776 _0730_
*777 _0731_
*778 _0732_
*779 _0733_
*780 _0734_
*781 _0735_
*782 _0736_
*783 _0737_
*784 _0738_
*785 _0739_
*786 _0740_
*787 _0741_
*788 _0742_
*789 _0743_
*790 _0744_
*791 _0745_
*792 _0746_
*793 _0747_
*794 _0748_
*795 _0749_
*796 _0750_
*797 _0751_
*798 _0752_
*799 _0753_
*800 _0754_
*801 _0755_
*802 _0756_
*803 _0757_
*804 _0758_
*805 _0759_
*806 _0760_
*807 _0761_
*808 _0762_
*809 _0763_
*810 _0764_
*811 _0765_
*812 _0766_
*813 _0767_
*814 _0768_
*815 _0769_
*816 _0770_
*817 _0771_
*818 _0772_
*819 _0773_
*820 _0774_
*821 _0775_
*822 _0776_
*823 _0777_
*824 _0778_
*825 _0779_
*826 _0780_
*827 _0781_
*828 _0782_
*829 _0783_
*830 _0784_
*831 _0785_
*832 _0786_
*833 _0787_
*834 _0788_
*835 _0789_
*836 _0790_
*837 _0791_
*838 _0792_
*839 _0793_
*840 _0794_
*841 _0795_
*842 _0796_
*843 _0797_
*844 _0798_
*845 _0799_
*846 _0800_
*847 _0801_
*848 _0802_
*849 _0803_
*850 _0804_
*851 _0805_
*852 _0806_
*853 _0807_
*854 _0808_
*855 _0809_
*856 _0810_
*857 _0811_
*858 _0812_
*859 _0813_
*860 _0814_
*861 _0815_
*862 _0816_
*863 _0817_
*864 _0818_
*865 _0819_
*866 _0820_
*867 _0821_
*868 _0822_
*869 _0823_
*870 _0824_
*871 _0825_
*872 _0826_
*873 _0827_
*874 _0828_
*875 _0829_
*876 _0830_
*877 _0831_
*878 _0832_
*879 _0833_
*880 _0834_
*881 _0835_
*882 _0836_
*883 _0837_
*884 _0838_
*885 _0839_
*886 _0840_
*887 _0841_
*888 _0842_
*889 _0843_
*890 _0844_
*891 _0845_
*892 _0846_
*893 _0847_
*894 _0848_
*895 _0849_
*896 _0850_
*897 _0851_
*898 _0852_
*899 _0853_
*900 _0854_
*901 _0855_
*902 _0856_
*903 _0857_
*904 _0858_
*905 _0859_
*906 _0860_
*907 _0861_
*908 _0862_
*909 _0863_
*910 _0864_
*911 _0865_
*912 _0866_
*913 _0867_
*914 _0868_
*915 _0869_
*916 _0870_
*917 _0871_
*918 _0872_
*919 _0873_
*920 _0874_
*921 _0875_
*922 _0876_
*923 _0877_
*924 _0878_
*925 _0879_
*926 _0880_
*927 _0881_
*928 _0882_
*929 _0883_
*930 _0884_
*931 _0885_
*932 _0886_
*933 _0887_
*934 _0888_
*935 _0889_
*936 _0890_
*937 _0891_
*938 _0892_
*939 _0893_
*940 _0894_
*941 _0895_
*942 _0896_
*943 _0897_
*944 _0898_
*945 _0899_
*946 _0900_
*947 _0901_
*948 _0902_
*949 _0903_
*950 _0904_
*951 _0905_
*952 _0906_
*953 _0907_
*954 _0908_
*955 _0909_
*956 _0910_
*957 _0911_
*958 _0912_
*959 _0913_
*960 _0914_
*961 _0915_
*962 _0916_
*963 _0917_
*964 _0918_
*965 _0919_
*966 _0920_
*967 _0921_
*968 _0922_
*969 _0923_
*970 _0924_
*971 _0925_
*972 _0926_
*973 _0927_
*974 _0928_
*975 _0929_
*976 _0930_
*977 _0931_
*978 _0932_
*979 _0933_
*980 _0934_
*981 _0935_
*982 _0936_
*983 _0937_
*984 _0938_
*985 _0939_
*986 _0940_
*987 _0941_
*988 _0942_
*989 _0943_
*990 _0944_
*991 _0945_
*992 _0946_
*993 _0947_
*994 _0948_
*995 _0949_
*996 _0950_
*997 _0951_
*998 _0952_
*999 _0953_
*1000 _0954_
*1001 _0955_
*1002 _0956_
*1003 _0957_
*1004 _0958_
*1005 _0959_
*1006 _0960_
*1007 _0961_
*1008 _0962_
*1009 _0963_
*1010 _0964_
*1011 _0965_
*1012 _0966_
*1013 _0967_
*1014 _0968_
*1015 _0969_
*1016 _0970_
*1017 _0971_
*1018 _0972_
*1019 _0973_
*1020 _0974_
*1021 _0975_
*1022 _0976_
*1023 _0977_
*1024 _0978_
*1025 _0979_
*1026 _0980_
*1027 _0981_
*1028 _0982_
*1029 _0983_
*1030 _0984_
*1031 _0985_
*1032 _0986_
*1033 _0987_
*1034 _0988_
*1035 _0989_
*1036 _0990_
*1037 _0991_
*1038 _0992_
*1039 _0993_
*1040 _0994_
*1041 _0995_
*1042 _0996_
*1043 _0997_
*1044 _0998_
*1045 _0999_
*1046 _1000_
*1047 _1001_
*1048 _1002_
*1049 _1003_
*1050 _1004_
*1051 _1005_
*1052 _1006_
*1053 _1007_
*1054 _1008_
*1055 _1009_
*1056 _1010_
*1057 _1011_
*1058 _1012_
*1059 _1013_
*1060 _1014_
*1061 _1015_
*1062 _1016_
*1063 _1017_
*1064 _1018_
*1065 _1019_
*1066 _1020_
*1067 _1021_
*1068 _1022_
*1069 _1023_
*1070 _1024_
*1071 _1025_
*1072 _1026_
*1073 _1027_
*1074 _1028_
*1075 _1029_
*1076 _1030_
*1077 _1031_
*1078 _1032_
*1079 _1033_
*1080 _1034_
*1081 _1035_
*1082 _1036_
*1083 _1037_
*1084 _1038_
*1085 _1039_
*1086 _1040_
*1087 _1041_
*1088 _1042_
*1089 _1043_
*1090 _1044_
*1091 _1045_
*1092 _1046_
*1093 _1047_
*1094 _1048_
*1095 _1049_
*1096 _1050_
*1097 _1051_
*1098 _1052_
*1099 _1053_
*1100 _1054_
*1101 _1055_
*1102 _1056_
*1103 _1057_
*1104 _1058_
*1105 _1059_
*1106 _1060_
*1107 _1061_
*1108 _1062_
*1109 _1063_
*1110 _1064_
*1111 _1065_
*1112 _1066_
*1113 _1067_
*1114 _1068_
*1115 _1069_
*1116 _1070_
*1117 _1071_
*1118 _1072_
*1119 _1073_
*1120 _1074_
*1121 _1075_
*1122 _1076_
*1123 _1077_
*1124 _1078_
*1125 _1079_
*1126 _1080_
*1127 _1081_
*1128 _1082_
*1129 _1083_
*1130 _1084_
*1131 _1085_
*1132 _1086_
*1133 _1087_
*1134 _1088_
*1135 _1089_
*1136 _1090_
*1137 _1091_
*1138 _1092_
*1139 _1093_
*1140 _1094_
*1141 _1095_
*1142 _1096_
*1143 _1097_
*1144 _1098_
*1145 _1099_
*1146 _1100_
*1147 _1101_
*1148 _1102_
*1149 _1103_
*1150 _1104_
*1151 _1105_
*1152 _1106_
*1153 _1107_
*1154 _1108_
*1155 _1109_
*1156 _1110_
*1157 _1111_
*1158 _1112_
*1159 _1113_
*1160 _1114_
*1161 _1115_
*1162 _1116_
*1163 _1117_
*1164 _1118_
*1165 _1119_
*1166 _1120_
*1167 _1121_
*1168 _1122_
*1169 _1123_
*1170 _1124_
*1171 _1125_
*1172 _1126_
*1173 _1127_
*1174 _1128_
*1175 _1129_
*1176 _1130_
*1177 _1131_
*1178 _1132_
*1179 _1133_
*1180 _1134_
*1181 _1135_
*1182 _1136_
*1183 _1137_
*1184 _1138_
*1185 _1139_
*1186 _1140_
*1187 _1141_
*1188 _1142_
*1189 _1143_
*1190 _1144_
*1191 _1145_
*1192 _1146_
*1193 _1147_
*1194 _1148_
*1195 _1149_
*1196 _1150_
*1197 _1151_
*1198 _1152_
*1199 _1153_
*1200 _1154_
*1201 _1155_
*1202 _1156_
*1203 _1157_
*1204 _1158_
*1205 _1159_
*1206 _1160_
*1207 _1161_
*1208 _1162_
*1209 _1163_
*1210 _1164_
*1211 _1165_
*1212 _1166_
*1213 _1167_
*1214 _1168_
*1215 _1169_
*1216 _1170_
*1217 _1171_
*1218 _1172_
*1219 _1173_
*1220 _1174_
*1221 _1175_
*1222 _1176_
*1223 _1177_
*1224 _1178_
*1225 _1179_
*1226 _1180_
*1227 _1181_
*1228 _1182_
*1229 _1183_
*1230 _1184_
*1231 _1185_
*1232 _1186_
*1233 _1187_
*1234 _1188_
*1235 _1189_
*1236 _1190_
*1237 _1191_
*1238 _1192_
*1239 _1193_
*1240 _1194_
*1241 _1195_
*1242 _1196_
*1243 _1197_
*1244 _1198_
*1245 _1199_
*1246 _1200_
*1247 _1201_
*1248 _1202_
*1249 _1203_
*1250 _1204_
*1251 _1205_
*1252 _1206_
*1253 _1207_
*1254 _1208_
*1255 _1209_
*1256 _1210_
*1257 _1211_
*1258 _1212_
*1259 _1213_
*1260 _1214_
*1261 _1215_
*1262 _1216_
*1263 _1217_
*1264 _1218_
*1265 _1219_
*1266 _1220_
*1267 _1221_
*1268 _1222_
*1269 _1223_
*1270 _1224_
*1271 _1225_
*1272 _1226_
*1273 _1227_
*1274 _1228_
*1275 _1229_
*1276 _1230_
*1277 _1231_
*1278 _1232_
*1279 _1233_
*1280 _1234_
*1281 _1235_
*1282 _1236_
*1283 _1237_
*1284 _1238_
*1285 _1239_
*1286 _1240_
*1287 _1241_
*1288 _1242_
*1289 _1243_
*1290 _1244_
*1291 _1245_
*1292 _1246_
*1293 _1247_
*1294 _1248_
*1295 _1249_
*1296 _1250_
*1297 _1251_
*1298 _1252_
*1299 _1253_
*1300 _1254_
*1301 _1255_
*1302 _1256_
*1303 _1257_
*1304 _1258_
*1305 _1259_
*1306 _1260_
*1307 _1261_
*1308 _1262_
*1309 _1263_
*1310 _1264_
*1311 _1265_
*1312 _1266_
*1313 _1267_
*1314 _1268_
*1315 _1269_
*1316 _1270_
*1317 _1271_
*1318 _1272_
*1319 _1273_
*1320 _1274_
*1321 _1275_
*1322 _1276_
*1323 _1277_
*1324 _1278_
*1325 _1279_
*1326 _1280_
*1327 _1281_
*1328 _1282_
*1329 _1283_
*1330 _1284_
*1331 _1285_
*1332 _1286_
*1333 _1287_
*1334 _1288_
*1335 _1289_
*1336 _1290_
*1337 _1291_
*1338 _1292_
*1339 _1293_
*1340 _1294_
*1341 _1295_
*1342 _1296_
*1343 _1297_
*1344 _1298_
*1345 _1299_
*1346 _1300_
*1347 _1301_
*1348 _1302_
*1349 _1303_
*1350 _1304_
*1351 _1305_
*1352 _1306_
*1353 _1307_
*1354 _1308_
*1355 _1309_
*1356 _1310_
*1357 _1311_
*1358 _1312_
*1359 _1313_
*1360 _1314_
*1361 _1315_
*1362 _1316_
*1363 _1317_
*1364 _1318_
*1365 _1319_
*1366 _1320_
*1367 _1321_
*1368 _1322_
*1369 _1323_
*1370 _1324_
*1371 _1325_
*1372 _1326_
*1373 _1327_
*1374 _1328_
*1375 _1329_
*1376 _1330_
*1377 _1331_
*1378 _1332_
*1379 _1333_
*1380 _1334_
*1381 _1335_
*1382 _1336_
*1383 _1337_
*1384 _1338_
*1385 _1339_
*1386 _1340_
*1387 _1341_
*1388 _1342_
*1389 _1343_
*1390 _1344_
*1391 _1345_
*1392 _1346_
*1393 _1347_
*1394 _1348_
*1395 _1349_
*1396 _1350_
*1397 _1351_
*1398 _1352_
*1399 _1353_
*1400 _1354_
*1401 _1355_
*1402 _1356_
*1403 _1357_
*1404 _1358_
*1405 _1359_
*1406 _1360_
*1407 _1361_
*1408 _1362_
*1409 _1363_
*1410 _1364_
*1411 _1365_
*1412 _1366_
*1413 _1367_
*1414 _1368_
*1415 _1369_
*1416 _1370_
*1417 _1371_
*1418 _1372_
*1419 _1373_
*1420 _1374_
*1421 _1375_
*1422 _1376_
*1423 _1377_
*1424 _1378_
*1425 _1379_
*1426 _1380_
*1427 _1381_
*1428 _1382_
*1429 _1383_
*1430 _1384_
*1431 _1385_
*1432 _1386_
*1433 _1387_
*1434 _1388_
*1435 _1389_
*1436 _1390_
*1437 _1391_
*1438 _1392_
*1439 _1393_
*1440 _1394_
*1441 _1395_
*1442 _1396_
*1443 _1397_
*1444 _1398_
*1445 _1399_
*1446 _1400_
*1447 _1401_
*1448 _1402_
*1449 _1403_
*1450 _1404_
*1451 _1405_
*1452 _1406_
*1453 _1407_
*1454 _1408_
*1455 _1409_
*1456 _1410_
*1457 _1411_
*1458 _1412_
*1459 _1413_
*1460 _1414_
*1461 _1415_
*1462 _1416_
*1463 _1417_
*1464 _1418_
*1465 _1419_
*1466 _1420_
*1467 _1421_
*1468 _1422_
*1469 _1423_
*1470 _1424_
*1471 _1425_
*1472 _1426_
*1473 _1427_
*1474 _1428_
*1475 _1429_
*1476 _1430_
*1477 _1431_
*1478 _1432_
*1479 _1433_
*1480 _1434_
*1481 _1435_
*1482 _1436_
*1483 _1437_
*1484 _1438_
*1485 _1439_
*1486 _1440_
*1487 _1441_
*1488 _1442_
*1489 _1443_
*1490 _1444_
*1491 _1445_
*1492 _1446_
*1493 _1447_
*1494 clknet_0_clk
*1495 clknet_2_0__leaf_clk
*1496 clknet_2_1__leaf_clk
*1497 clknet_2_2__leaf_clk
*1498 clknet_2_3__leaf_clk
*1499 clknet_leaf_0_clk
*1500 clknet_leaf_10_clk
*1501 clknet_leaf_11_clk
*1502 clknet_leaf_12_clk
*1503 clknet_leaf_13_clk
*1504 clknet_leaf_14_clk
*1505 clknet_leaf_15_clk
*1506 clknet_leaf_16_clk
*1507 clknet_leaf_17_clk
*1508 clknet_leaf_18_clk
*1509 clknet_leaf_19_clk
*1510 clknet_leaf_1_clk
*1511 clknet_leaf_20_clk
*1512 clknet_leaf_21_clk
*1513 clknet_leaf_22_clk
*1514 clknet_leaf_23_clk
*1515 clknet_leaf_24_clk
*1516 clknet_leaf_25_clk
*1517 clknet_leaf_26_clk
*1518 clknet_leaf_27_clk
*1519 clknet_leaf_28_clk
*1520 clknet_leaf_2_clk
*1521 clknet_leaf_3_clk
*1522 clknet_leaf_4_clk
*1523 clknet_leaf_5_clk
*1524 clknet_leaf_6_clk
*1525 clknet_leaf_7_clk
*1526 clknet_leaf_8_clk
*1527 clknet_leaf_9_clk
*1528 net1
*1529 net100
*1530 net101
*1531 net102
*1532 net103
*1533 net104
*1534 net105
*1535 net106
*1536 net107
*1537 net108
*1538 net109
*1539 net110
*1540 net111
*1541 net112
*1542 net113
*1543 net114
*1544 net115
*1545 net116
*1546 net117
*1547 net118
*1548 net119
*1549 net120
*1550 net121
*1551 net122
*1552 net123
*1553 net124
*1554 net125
*1555 net126
*1556 net127
*1557 net128
*1558 net129
*1559 net130
*1560 net131
*1561 net132
*1562 net133
*1563 net134
*1564 net135
*1565 net136
*1566 net137
*1567 net138
*1568 net139
*1569 net140
*1570 net141
*1571 net142
*1572 net143
*1573 net144
*1574 net145
*1575 net146
*1576 net147
*1577 net148
*1578 net149
*1579 net150
*1580 net151
*1581 net152
*1582 net153
*1583 net154
*1584 net155
*1585 net156
*1586 net157
*1587 net158
*1588 net159
*1589 net160
*1590 net161
*1591 net162
*1592 net163
*1593 net164
*1594 net165
*1595 net166
*1596 net167
*1597 net168
*1598 net169
*1599 net170
*1600 net171
*1601 net172
*1602 net173
*1603 net174
*1604 net175
*1605 net176
*1606 net177
*1607 net178
*1608 net179
*1609 net180
*1610 net181
*1611 net182
*1612 net183
*1613 net184
*1614 net185
*1615 net186
*1616 net187
*1617 net188
*1618 net189
*1619 net190
*1620 net191
*1621 net192
*1622 net193
*1623 net194
*1624 net195
*1625 net196
*1626 net197
*1627 net198
*1628 net199
*1629 net2
*1630 net200
*1631 net201
*1632 net202
*1633 net203
*1634 net204
*1635 net205
*1636 net206
*1637 net207
*1638 net208
*1639 net209
*1640 net210
*1641 net211
*1642 net212
*1643 net213
*1644 net214
*1645 net215
*1646 net216
*1647 net217
*1648 net218
*1649 net219
*1650 net220
*1651 net221
*1652 net222
*1653 net223
*1654 net224
*1655 net225
*1656 net226
*1657 net227
*1658 net228
*1659 net229
*1660 net230
*1661 net231
*1662 net232
*1663 net233
*1664 net234
*1665 net235
*1666 net236
*1667 net237
*1668 net238
*1669 net239
*1670 net240
*1671 net241
*1672 net242
*1673 net243
*1674 net244
*1675 net245
*1676 net246
*1677 net247
*1678 net248
*1679 net249
*1680 net250
*1681 net251
*1682 net252
*1683 net253
*1684 net254
*1685 net255
*1686 net256
*1687 net257
*1688 net258
*1689 net259
*1690 net260
*1691 net261
*1692 net262
*1693 net263
*1694 net264
*1695 net265
*1696 net266
*1697 net267
*1698 net268
*1699 net269
*1700 net27
*1701 net270
*1702 net271
*1703 net272
*1704 net273
*1705 net274
*1706 net275
*1707 net276
*1708 net277
*1709 net278
*1710 net279
*1711 net28
*1712 net280
*1713 net281
*1714 net282
*1715 net283
*1716 net284
*1717 net285
*1718 net286
*1719 net287
*1720 net288
*1721 net289
*1722 net29
*1723 net290
*1724 net291
*1725 net292
*1726 net293
*1727 net294
*1728 net295
*1729 net296
*1730 net297
*1731 net298
*1732 net299
*1733 net3
*1734 net30
*1735 net300
*1736 net301
*1737 net302
*1738 net303
*1739 net304
*1740 net305
*1741 net306
*1742 net307
*1743 net308
*1744 net309
*1745 net31
*1746 net310
*1747 net311
*1748 net312
*1749 net313
*1750 net314
*1751 net315
*1752 net316
*1753 net317
*1754 net318
*1755 net319
*1756 net32
*1757 net320
*1758 net321
*1759 net322
*1760 net323
*1761 net324
*1762 net325
*1763 net326
*1764 net327
*1765 net328
*1766 net329
*1767 net33
*1768 net330
*1769 net331
*1770 net332
*1771 net333
*1772 net334
*1773 net335
*1774 net336
*1775 net337
*1776 net338
*1777 net339
*1778 net34
*1779 net340
*1780 net341
*1781 net342
*1782 net343
*1783 net344
*1784 net345
*1785 net346
*1786 net347
*1787 net348
*1788 net349
*1789 net35
*1790 net350
*1791 net351
*1792 net352
*1793 net353
*1794 net354
*1795 net355
*1796 net356
*1797 net357
*1798 net358
*1799 net359
*1800 net36
*1801 net360
*1802 net361
*1803 net362
*1804 net363
*1805 net364
*1806 net365
*1807 net366
*1808 net367
*1809 net368
*1810 net369
*1811 net37
*1812 net370
*1813 net371
*1814 net372
*1815 net373
*1816 net374
*1817 net375
*1818 net376
*1819 net377
*1820 net378
*1821 net379
*1822 net38
*1823 net380
*1824 net381
*1825 net382
*1826 net383
*1827 net384
*1828 net385
*1829 net386
*1830 net387
*1831 net388
*1832 net389
*1833 net39
*1834 net390
*1835 net391
*1836 net392
*1837 net393
*1838 net394
*1839 net395
*1840 net396
*1841 net397
*1842 net398
*1843 net399
*1844 net4
*1845 net40
*1846 net400
*1847 net401
*1848 net402
*1849 net403
*1850 net404
*1851 net405
*1852 net406
*1853 net407
*1854 net408
*1855 net409
*1856 net41
*1857 net410
*1858 net411
*1859 net412
*1860 net413
*1861 net414
*1862 net415
*1863 net416
*1864 net417
*1865 net418
*1866 net419
*1867 net42
*1868 net420
*1869 net421
*1870 net422
*1871 net43
*1872 net44
*1873 net45
*1874 net46
*1875 net47
*1876 net48
*1877 net49
*1878 net5
*1879 net50
*1880 net51
*1881 net52
*1882 net53
*1883 net54
*1884 net55
*1885 net56
*1886 net57
*1887 net58
*1888 net59
*1889 net60
*1890 net61
*1891 net62
*1892 net63
*1893 net64
*1894 net65
*1895 net66
*1896 net67
*1897 net68
*1898 net69
*1899 net70
*1900 net71
*1901 net72
*1902 net73
*1903 net74
*1904 net75
*1905 net76
*1906 net77
*1907 net78
*1908 net79
*1909 net80
*1910 net81
*1911 net82
*1912 net83
*1913 net84
*1914 net85
*1915 net86
*1916 net87
*1917 net88
*1918 net89
*1919 net90
*1920 net91
*1921 net92
*1922 net93
*1923 net94
*1924 net95
*1925 net96
*1926 net97
*1927 net98
*1928 net99
*1929 tg\.I2S_TX\.bclk_counter\[0\]
*1930 tg\.I2S_TX\.bclk_counter\[1\]
*1931 tg\.I2S_TX\.bclk_counter\[2\]
*1932 tg\.I2S_TX\.bclk_counter\[3\]
*1933 tg\.I2S_TX\.bclk_counter\[4\]
*1934 tg\.I2S_TX\.buffer_reg\[0\]
*1935 tg\.I2S_TX\.buffer_reg\[10\]
*1936 tg\.I2S_TX\.buffer_reg\[11\]
*1937 tg\.I2S_TX\.buffer_reg\[12\]
*1938 tg\.I2S_TX\.buffer_reg\[13\]
*1939 tg\.I2S_TX\.buffer_reg\[14\]
*1940 tg\.I2S_TX\.buffer_reg\[15\]
*1941 tg\.I2S_TX\.buffer_reg\[1\]
*1942 tg\.I2S_TX\.buffer_reg\[2\]
*1943 tg\.I2S_TX\.buffer_reg\[3\]
*1944 tg\.I2S_TX\.buffer_reg\[4\]
*1945 tg\.I2S_TX\.buffer_reg\[5\]
*1946 tg\.I2S_TX\.buffer_reg\[6\]
*1947 tg\.I2S_TX\.buffer_reg\[7\]
*1948 tg\.I2S_TX\.buffer_reg\[8\]
*1949 tg\.I2S_TX\.buffer_reg\[9\]
*1950 tg\.I2S_TX\.d_out
*1951 tg\.I2S_TX\.data_in\[0\]
*1952 tg\.I2S_TX\.data_in\[10\]
*1953 tg\.I2S_TX\.data_in\[11\]
*1954 tg\.I2S_TX\.data_in\[12\]
*1955 tg\.I2S_TX\.data_in\[13\]
*1956 tg\.I2S_TX\.data_in\[14\]
*1957 tg\.I2S_TX\.data_in\[15\]
*1958 tg\.I2S_TX\.data_in\[1\]
*1959 tg\.I2S_TX\.data_in\[2\]
*1960 tg\.I2S_TX\.data_in\[3\]
*1961 tg\.I2S_TX\.data_in\[4\]
*1962 tg\.I2S_TX\.data_in\[5\]
*1963 tg\.I2S_TX\.data_in\[6\]
*1964 tg\.I2S_TX\.data_in\[7\]
*1965 tg\.I2S_TX\.data_in\[8\]
*1966 tg\.I2S_TX\.data_in\[9\]
*1967 tg\.I2S_TX\.data_valid_in
*1968 tg\.I2S_TX\.master_count_in\[5\]
*1969 tg\.I2S_TX\.master_count_in\[6\]
*1970 tg\.I2S_TX\.master_count_in\[7\]
*1971 tg\.I2S_TX\.master_count_in\[8\]
*1972 tg\.I2S_TX\.master_count_in\[9\]
*1973 tg\.I2S_TX\.shift_reg\[0\]
*1974 tg\.I2S_TX\.shift_reg\[10\]
*1975 tg\.I2S_TX\.shift_reg\[11\]
*1976 tg\.I2S_TX\.shift_reg\[12\]
*1977 tg\.I2S_TX\.shift_reg\[13\]
*1978 tg\.I2S_TX\.shift_reg\[14\]
*1979 tg\.I2S_TX\.shift_reg\[1\]
*1980 tg\.I2S_TX\.shift_reg\[2\]
*1981 tg\.I2S_TX\.shift_reg\[3\]
*1982 tg\.I2S_TX\.shift_reg\[4\]
*1983 tg\.I2S_TX\.shift_reg\[5\]
*1984 tg\.I2S_TX\.shift_reg\[6\]
*1985 tg\.I2S_TX\.shift_reg\[7\]
*1986 tg\.I2S_TX\.shift_reg\[8\]
*1987 tg\.I2S_TX\.shift_reg\[9\]
*1988 tg\.SAMPLE_CNT\.WAVE_LUT\.WAVE_MEM\.mem\[0\]\[0\]
*1989 tg\.SAMPLE_CNT\.WAVE_LUT\.WAVE_MEM\.mem\[0\]\[1\]
*1990 tg\.SAMPLE_CNT\.WAVE_LUT\.WAVE_MEM\.mem\[0\]\[2\]
*1991 tg\.SAMPLE_CNT\.WAVE_LUT\.WAVE_MEM\.mem\[0\]\[3\]
*1992 tg\.SAMPLE_CNT\.WAVE_LUT\.WAVE_MEM\.mem\[10\]\[0\]
*1993 tg\.SAMPLE_CNT\.WAVE_LUT\.WAVE_MEM\.mem\[10\]\[1\]
*1994 tg\.SAMPLE_CNT\.WAVE_LUT\.WAVE_MEM\.mem\[10\]\[2\]
*1995 tg\.SAMPLE_CNT\.WAVE_LUT\.WAVE_MEM\.mem\[10\]\[3\]
*1996 tg\.SAMPLE_CNT\.WAVE_LUT\.WAVE_MEM\.mem\[11\]\[0\]
*1997 tg\.SAMPLE_CNT\.WAVE_LUT\.WAVE_MEM\.mem\[11\]\[1\]
*1998 tg\.SAMPLE_CNT\.WAVE_LUT\.WAVE_MEM\.mem\[11\]\[2\]
*1999 tg\.SAMPLE_CNT\.WAVE_LUT\.WAVE_MEM\.mem\[11\]\[3\]
*2000 tg\.SAMPLE_CNT\.WAVE_LUT\.WAVE_MEM\.mem\[12\]\[0\]
*2001 tg\.SAMPLE_CNT\.WAVE_LUT\.WAVE_MEM\.mem\[12\]\[1\]
*2002 tg\.SAMPLE_CNT\.WAVE_LUT\.WAVE_MEM\.mem\[12\]\[2\]
*2003 tg\.SAMPLE_CNT\.WAVE_LUT\.WAVE_MEM\.mem\[12\]\[3\]
*2004 tg\.SAMPLE_CNT\.WAVE_LUT\.WAVE_MEM\.mem\[13\]\[0\]
*2005 tg\.SAMPLE_CNT\.WAVE_LUT\.WAVE_MEM\.mem\[13\]\[1\]
*2006 tg\.SAMPLE_CNT\.WAVE_LUT\.WAVE_MEM\.mem\[13\]\[2\]
*2007 tg\.SAMPLE_CNT\.WAVE_LUT\.WAVE_MEM\.mem\[13\]\[3\]
*2008 tg\.SAMPLE_CNT\.WAVE_LUT\.WAVE_MEM\.mem\[14\]\[0\]
*2009 tg\.SAMPLE_CNT\.WAVE_LUT\.WAVE_MEM\.mem\[14\]\[1\]
*2010 tg\.SAMPLE_CNT\.WAVE_LUT\.WAVE_MEM\.mem\[14\]\[2\]
*2011 tg\.SAMPLE_CNT\.WAVE_LUT\.WAVE_MEM\.mem\[14\]\[3\]
*2012 tg\.SAMPLE_CNT\.WAVE_LUT\.WAVE_MEM\.mem\[15\]\[0\]
*2013 tg\.SAMPLE_CNT\.WAVE_LUT\.WAVE_MEM\.mem\[15\]\[1\]
*2014 tg\.SAMPLE_CNT\.WAVE_LUT\.WAVE_MEM\.mem\[15\]\[2\]
*2015 tg\.SAMPLE_CNT\.WAVE_LUT\.WAVE_MEM\.mem\[15\]\[3\]
*2016 tg\.SAMPLE_CNT\.WAVE_LUT\.WAVE_MEM\.mem\[16\]\[0\]
*2017 tg\.SAMPLE_CNT\.WAVE_LUT\.WAVE_MEM\.mem\[16\]\[1\]
*2018 tg\.SAMPLE_CNT\.WAVE_LUT\.WAVE_MEM\.mem\[16\]\[2\]
*2019 tg\.SAMPLE_CNT\.WAVE_LUT\.WAVE_MEM\.mem\[16\]\[3\]
*2020 tg\.SAMPLE_CNT\.WAVE_LUT\.WAVE_MEM\.mem\[17\]\[0\]
*2021 tg\.SAMPLE_CNT\.WAVE_LUT\.WAVE_MEM\.mem\[17\]\[1\]
*2022 tg\.SAMPLE_CNT\.WAVE_LUT\.WAVE_MEM\.mem\[17\]\[2\]
*2023 tg\.SAMPLE_CNT\.WAVE_LUT\.WAVE_MEM\.mem\[17\]\[3\]
*2024 tg\.SAMPLE_CNT\.WAVE_LUT\.WAVE_MEM\.mem\[18\]\[0\]
*2025 tg\.SAMPLE_CNT\.WAVE_LUT\.WAVE_MEM\.mem\[18\]\[1\]
*2026 tg\.SAMPLE_CNT\.WAVE_LUT\.WAVE_MEM\.mem\[18\]\[2\]
*2027 tg\.SAMPLE_CNT\.WAVE_LUT\.WAVE_MEM\.mem\[18\]\[3\]
*2028 tg\.SAMPLE_CNT\.WAVE_LUT\.WAVE_MEM\.mem\[19\]\[0\]
*2029 tg\.SAMPLE_CNT\.WAVE_LUT\.WAVE_MEM\.mem\[19\]\[1\]
*2030 tg\.SAMPLE_CNT\.WAVE_LUT\.WAVE_MEM\.mem\[19\]\[2\]
*2031 tg\.SAMPLE_CNT\.WAVE_LUT\.WAVE_MEM\.mem\[19\]\[3\]
*2032 tg\.SAMPLE_CNT\.WAVE_LUT\.WAVE_MEM\.mem\[1\]\[0\]
*2033 tg\.SAMPLE_CNT\.WAVE_LUT\.WAVE_MEM\.mem\[1\]\[1\]
*2034 tg\.SAMPLE_CNT\.WAVE_LUT\.WAVE_MEM\.mem\[1\]\[2\]
*2035 tg\.SAMPLE_CNT\.WAVE_LUT\.WAVE_MEM\.mem\[1\]\[3\]
*2036 tg\.SAMPLE_CNT\.WAVE_LUT\.WAVE_MEM\.mem\[20\]\[0\]
*2037 tg\.SAMPLE_CNT\.WAVE_LUT\.WAVE_MEM\.mem\[20\]\[1\]
*2038 tg\.SAMPLE_CNT\.WAVE_LUT\.WAVE_MEM\.mem\[20\]\[2\]
*2039 tg\.SAMPLE_CNT\.WAVE_LUT\.WAVE_MEM\.mem\[20\]\[3\]
*2040 tg\.SAMPLE_CNT\.WAVE_LUT\.WAVE_MEM\.mem\[21\]\[0\]
*2041 tg\.SAMPLE_CNT\.WAVE_LUT\.WAVE_MEM\.mem\[21\]\[1\]
*2042 tg\.SAMPLE_CNT\.WAVE_LUT\.WAVE_MEM\.mem\[21\]\[2\]
*2043 tg\.SAMPLE_CNT\.WAVE_LUT\.WAVE_MEM\.mem\[21\]\[3\]
*2044 tg\.SAMPLE_CNT\.WAVE_LUT\.WAVE_MEM\.mem\[22\]\[0\]
*2045 tg\.SAMPLE_CNT\.WAVE_LUT\.WAVE_MEM\.mem\[22\]\[1\]
*2046 tg\.SAMPLE_CNT\.WAVE_LUT\.WAVE_MEM\.mem\[22\]\[2\]
*2047 tg\.SAMPLE_CNT\.WAVE_LUT\.WAVE_MEM\.mem\[22\]\[3\]