*SPEF "ieee 1481-1999"
*DESIGN "tt_um_wokwi_380119282165535745"
*DATE "11:11:11 Fri 11 11, 1111"
*VENDOR "OpenRCX"
*PROGRAM "Parallel Extraction"
*VERSION "1.0"
*DESIGN_FLOW "NAME_SCOPE LOCAL" "PIN_CAP NONE"
*DIVIDER /
*DELIMITER :
*BUS_DELIMITER []
*T_UNIT 1 NS
*C_UNIT 1 PF
*R_UNIT 1 OHM
*L_UNIT 1 HENRY

*NAME_MAP
*3 clk
*4 ena
*5 rst_n
*6 ui_in[0]
*7 ui_in[1]
*8 ui_in[2]
*9 ui_in[3]
*10 ui_in[4]
*11 ui_in[5]
*12 ui_in[6]
*13 ui_in[7]
*14 uio_in[0]
*15 uio_in[1]
*16 uio_in[2]
*17 uio_in[3]
*18 uio_in[4]
*19 uio_in[5]
*20 uio_in[6]
*21 uio_in[7]
*22 net2
*23 net3
*24 net4
*25 net5
*26 net6
*27 net7
*28 net8
*29 net9
*30 net10
*31 net11
*32 net12
*33 net13
*34 net14
*35 net15
*36 net16
*37 net17
*38 uo_out[0]
*39 uo_out[1]
*40 uo_out[2]
*41 uo_out[3]
*42 uo_out[4]
*43 uo_out[5]
*44 uo_out[6]
*45 net18
*46 _00_
*47 _01_
*48 _02_
*49 _03_
*50 _04_
*51 _05_
*52 _06_
*53 _07_
*54 _08_
*55 _09_
*56 _10_
*57 _11_
*58 clknet_0_clk
*59 clknet_1_0__leaf_clk
*60 clknet_1_1__leaf_clk
*61 flipflop1\.d
*62 flipflop1\.q
*63 flipflop2\.clk
*64 flipflop2\.d
*65 flipflop2\.q
*66 flipflop3\.clk
*67 flipflop3\.d
*68 flipflop3\.q
*69 flipflop5\.clk
*70 flipflop5\.d
*71 flipflop5\.q
*72 flipflop6\.d
*73 flipflop6\.q
*74 gate27\.out
*75 gate30\.out
*76 gate32\.out
*77 gate36\.out
*78 gate42\.out
*79 gate46\.out
*80 gate52\.out
*81 net1
*82 net19
*83 net20
*84 net21
*85 FILLER_0_0_109
*86 FILLER_0_0_113
*87 FILLER_0_0_125
*88 FILLER_0_0_137
*89 FILLER_0_0_141
*90 FILLER_0_0_15
*91 FILLER_0_0_153
*92 FILLER_0_0_165
*93 FILLER_0_0_169
*94 FILLER_0_0_181
*95 FILLER_0_0_193
*96 FILLER_0_0_197
*97 FILLER_0_0_209
*98 FILLER_0_0_221
*99 FILLER_0_0_225
*100 FILLER_0_0_237
*101 FILLER_0_0_249
*102 FILLER_0_0_253
*103 FILLER_0_0_265
*104 FILLER_0_0_27
*105 FILLER_0_0_277
*106 FILLER_0_0_281
*107 FILLER_0_0_29
*108 FILLER_0_0_293
*109 FILLER_0_0_3
*110 FILLER_0_0_305
*111 FILLER_0_0_309
*112 FILLER_0_0_321
*113 FILLER_0_0_333
*114 FILLER_0_0_337
*115 FILLER_0_0_349
*116 FILLER_0_0_41
*117 FILLER_0_0_53
*118 FILLER_0_0_57
*119 FILLER_0_0_69
*120 FILLER_0_0_81
*121 FILLER_0_0_85
*122 FILLER_0_0_97
*123 FILLER_0_10_109
*124 FILLER_0_10_121
*125 FILLER_0_10_133
*126 FILLER_0_10_139
*127 FILLER_0_10_141
*128 FILLER_0_10_15
*129 FILLER_0_10_153
*130 FILLER_0_10_165
*131 FILLER_0_10_177
*132 FILLER_0_10_189
*133 FILLER_0_10_195
*134 FILLER_0_10_197
*135 FILLER_0_10_209
*136 FILLER_0_10_221
*137 FILLER_0_10_233
*138 FILLER_0_10_245
*139 FILLER_0_10_251
*140 FILLER_0_10_253
*141 FILLER_0_10_265
*142 FILLER_0_10_27
*143 FILLER_0_10_277
*144 FILLER_0_10_289
*145 FILLER_0_10_29
*146 FILLER_0_10_3
*147 FILLER_0_10_301
*148 FILLER_0_10_307
*149 FILLER_0_10_309
*150 FILLER_0_10_321
*151 FILLER_0_10_333
*152 FILLER_0_10_345
*153 FILLER_0_10_41
*154 FILLER_0_10_53
*155 FILLER_0_10_65
*156 FILLER_0_10_77
*157 FILLER_0_10_83
*158 FILLER_0_10_85
*159 FILLER_0_10_97
*160 FILLER_0_11_105
*161 FILLER_0_11_111
*162 FILLER_0_11_113
*163 FILLER_0_11_125
*164 FILLER_0_11_137
*165 FILLER_0_11_149
*166 FILLER_0_11_15
*167 FILLER_0_11_161
*168 FILLER_0_11_167
*169 FILLER_0_11_169
*170 FILLER_0_11_181
*171 FILLER_0_11_193
*172 FILLER_0_11_205
*173 FILLER_0_11_217
*174 FILLER_0_11_223
*175 FILLER_0_11_225
*176 FILLER_0_11_237
*177 FILLER_0_11_249
*178 FILLER_0_11_261
*179 FILLER_0_11_27
*180 FILLER_0_11_273
*181 FILLER_0_11_279
*182 FILLER_0_11_281
*183 FILLER_0_11_293
*184 FILLER_0_11_3
*185 FILLER_0_11_305
*186 FILLER_0_11_317
*187 FILLER_0_11_329
*188 FILLER_0_11_335
*189 FILLER_0_11_337
*190 FILLER_0_11_349
*191 FILLER_0_11_39
*192 FILLER_0_11_51
*193 FILLER_0_11_55
*194 FILLER_0_11_57
*195 FILLER_0_11_69
*196 FILLER_0_11_81
*197 FILLER_0_11_93
*198 FILLER_0_12_109
*199 FILLER_0_12_121
*200 FILLER_0_12_133
*201 FILLER_0_12_139
*202 FILLER_0_12_141
*203 FILLER_0_12_15
*204 FILLER_0_12_153
*205 FILLER_0_12_165
*206 FILLER_0_12_177
*207 FILLER_0_12_189
*208 FILLER_0_12_195
*209 FILLER_0_12_197
*210 FILLER_0_12_209
*211 FILLER_0_12_221
*212 FILLER_0_12_233
*213 FILLER_0_12_245
*214 FILLER_0_12_251
*215 FILLER_0_12_253
*216 FILLER_0_12_265
*217 FILLER_0_12_27
*218 FILLER_0_12_277
*219 FILLER_0_12_289
*220 FILLER_0_12_29
*221 FILLER_0_12_3
*222 FILLER_0_12_301
*223 FILLER_0_12_307
*224 FILLER_0_12_309
*225 FILLER_0_12_321
*226 FILLER_0_12_333
*227 FILLER_0_12_345
*228 FILLER_0_12_41
*229 FILLER_0_12_53
*230 FILLER_0_12_65
*231 FILLER_0_12_77
*232 FILLER_0_12_83
*233 FILLER_0_12_85
*234 FILLER_0_12_97
*235 FILLER_0_13_105
*236 FILLER_0_13_111
*237 FILLER_0_13_113
*238 FILLER_0_13_125
*239 FILLER_0_13_137
*240 FILLER_0_13_149
*241 FILLER_0_13_15
*242 FILLER_0_13_161
*243 FILLER_0_13_167
*244 FILLER_0_13_169
*245 FILLER_0_13_181
*246 FILLER_0_13_193
*247 FILLER_0_13_205
*248 FILLER_0_13_217
*249 FILLER_0_13_223
*250 FILLER_0_13_225
*251 FILLER_0_13_237
*252 FILLER_0_13_249
*253 FILLER_0_13_261
*254 FILLER_0_13_27
*255 FILLER_0_13_273
*256 FILLER_0_13_279
*257 FILLER_0_13_281
*258 FILLER_0_13_293
*259 FILLER_0_13_3
*260 FILLER_0_13_305
*261 FILLER_0_13_317
*262 FILLER_0_13_329
*263 FILLER_0_13_335
*264 FILLER_0_13_337
*265 FILLER_0_13_349
*266 FILLER_0_13_39
*267 FILLER_0_13_51
*268 FILLER_0_13_55
*269 FILLER_0_13_57
*270 FILLER_0_13_69
*271 FILLER_0_13_81
*272 FILLER_0_13_93
*273 FILLER_0_14_109
*274 FILLER_0_14_121
*275 FILLER_0_14_133
*276 FILLER_0_14_139
*277 FILLER_0_14_141
*278 FILLER_0_14_15
*279 FILLER_0_14_153
*280 FILLER_0_14_165
*281 FILLER_0_14_177
*282 FILLER_0_14_189
*283 FILLER_0_14_195
*284 FILLER_0_14_197
*285 FILLER_0_14_209
*286 FILLER_0_14_221
*287 FILLER_0_14_233
*288 FILLER_0_14_245
*289 FILLER_0_14_251
*290 FILLER_0_14_253
*291 FILLER_0_14_265
*292 FILLER_0_14_27
*293 FILLER_0_14_277
*294 FILLER_0_14_289
*295 FILLER_0_14_29
*296 FILLER_0_14_3
*297 FILLER_0_14_301
*298 FILLER_0_14_307
*299 FILLER_0_14_309
*300 FILLER_0_14_321
*301 FILLER_0_14_333
*302 FILLER_0_14_345
*303 FILLER_0_14_41
*304 FILLER_0_14_53
*305 FILLER_0_14_65
*306 FILLER_0_14_77
*307 FILLER_0_14_83
*308 FILLER_0_14_85
*309 FILLER_0_14_97
*310 FILLER_0_15_105
*311 FILLER_0_15_111
*312 FILLER_0_15_113
*313 FILLER_0_15_125
*314 FILLER_0_15_137
*315 FILLER_0_15_149
*316 FILLER_0_15_15
*317 FILLER_0_15_161
*318 FILLER_0_15_167
*319 FILLER_0_15_169
*320 FILLER_0_15_181
*321 FILLER_0_15_193
*322 FILLER_0_15_205
*323 FILLER_0_15_217
*324 FILLER_0_15_223
*325 FILLER_0_15_225
*326 FILLER_0_15_237
*327 FILLER_0_15_249
*328 FILLER_0_15_261
*329 FILLER_0_15_27
*330 FILLER_0_15_273
*331 FILLER_0_15_279
*332 FILLER_0_15_281
*333 FILLER_0_15_293
*334 FILLER_0_15_3
*335 FILLER_0_15_305
*336 FILLER_0_15_317
*337 FILLER_0_15_329
*338 FILLER_0_15_335
*339 FILLER_0_15_337
*340 FILLER_0_15_349
*341 FILLER_0_15_39
*342 FILLER_0_15_51
*343 FILLER_0_15_55
*344 FILLER_0_15_57
*345 FILLER_0_15_69
*346 FILLER_0_15_81
*347 FILLER_0_15_93
*348 FILLER_0_16_109
*349 FILLER_0_16_121
*350 FILLER_0_16_133
*351 FILLER_0_16_139
*352 FILLER_0_16_141
*353 FILLER_0_16_15
*354 FILLER_0_16_153
*355 FILLER_0_16_165
*356 FILLER_0_16_177
*357 FILLER_0_16_189
*358 FILLER_0_16_195
*359 FILLER_0_16_197
*360 FILLER_0_16_209
*361 FILLER_0_16_221
*362 FILLER_0_16_233
*363 FILLER_0_16_245
*364 FILLER_0_16_251
*365 FILLER_0_16_253
*366 FILLER_0_16_265
*367 FILLER_0_16_27
*368 FILLER_0_16_277
*369 FILLER_0_16_289
*370 FILLER_0_16_29
*371 FILLER_0_16_3
*372 FILLER_0_16_301
*373 FILLER_0_16_307
*374 FILLER_0_16_309
*375 FILLER_0_16_321
*376 FILLER_0_16_333
*377 FILLER_0_16_345
*378 FILLER_0_16_41
*379 FILLER_0_16_53
*380 FILLER_0_16_65
*381 FILLER_0_16_77
*382 FILLER_0_16_83
*383 FILLER_0_16_85
*384 FILLER_0_16_97
*385 FILLER_0_17_105
*386 FILLER_0_17_111
*387 FILLER_0_17_113
*388 FILLER_0_17_125
*389 FILLER_0_17_137
*390 FILLER_0_17_149
*391 FILLER_0_17_15
*392 FILLER_0_17_161
*393 FILLER_0_17_167
*394 FILLER_0_17_169
*395 FILLER_0_17_181
*396 FILLER_0_17_193
*397 FILLER_0_17_205
*398 FILLER_0_17_217
*399 FILLER_0_17_223
*400 FILLER_0_17_225
*401 FILLER_0_17_237
*402 FILLER_0_17_249
*403 FILLER_0_17_261
*404 FILLER_0_17_27
*405 FILLER_0_17_273
*406 FILLER_0_17_279
*407 FILLER_0_17_281
*408 FILLER_0_17_293
*409 FILLER_0_17_3
*410 FILLER_0_17_305
*411 FILLER_0_17_317
*412 FILLER_0_17_329
*413 FILLER_0_17_335
*414 FILLER_0_17_337
*415 FILLER_0_17_349
*416 FILLER_0_17_39
*417 FILLER_0_17_51
*418 FILLER_0_17_55
*419 FILLER_0_17_57
*420 FILLER_0_17_69
*421 FILLER_0_17_81
*422 FILLER_0_17_93
*423 FILLER_0_18_109
*424 FILLER_0_18_121
*425 FILLER_0_18_133
*426 FILLER_0_18_139
*427 FILLER_0_18_141
*428 FILLER_0_18_15
*429 FILLER_0_18_153
*430 FILLER_0_18_165
*431 FILLER_0_18_177
*432 FILLER_0_18_189
*433 FILLER_0_18_195
*434 FILLER_0_18_197
*435 FILLER_0_18_209
*436 FILLER_0_18_221
*437 FILLER_0_18_233
*438 FILLER_0_18_245
*439 FILLER_0_18_251
*440 FILLER_0_18_253
*441 FILLER_0_18_265
*442 FILLER_0_18_27
*443 FILLER_0_18_277
*444 FILLER_0_18_289
*445 FILLER_0_18_29
*446 FILLER_0_18_3
*447 FILLER_0_18_301
*448 FILLER_0_18_307
*449 FILLER_0_18_309
*450 FILLER_0_18_321
*451 FILLER_0_18_333
*452 FILLER_0_18_345
*453 FILLER_0_18_41
*454 FILLER_0_18_53
*455 FILLER_0_18_65
*456 FILLER_0_18_77
*457 FILLER_0_18_83
*458 FILLER_0_18_85
*459 FILLER_0_18_97
*460 FILLER_0_19_105
*461 FILLER_0_19_111
*462 FILLER_0_19_113
*463 FILLER_0_19_125
*464 FILLER_0_19_137
*465 FILLER_0_19_149
*466 FILLER_0_19_15
*467 FILLER_0_19_161
*468 FILLER_0_19_167
*469 FILLER_0_19_169
*470 FILLER_0_19_181
*471 FILLER_0_19_193
*472 FILLER_0_19_205
*473 FILLER_0_19_217
*474 FILLER_0_19_223
*475 FILLER_0_19_225
*476 FILLER_0_19_237
*477 FILLER_0_19_249
*478 FILLER_0_19_261
*479 FILLER_0_19_27
*480 FILLER_0_19_273
*481 FILLER_0_19_279
*482 FILLER_0_19_281
*483 FILLER_0_19_293
*484 FILLER_0_19_3
*485 FILLER_0_19_305
*486 FILLER_0_19_317
*487 FILLER_0_19_329
*488 FILLER_0_19_335
*489 FILLER_0_19_337
*490 FILLER_0_19_349
*491 FILLER_0_19_39
*492 FILLER_0_19_51
*493 FILLER_0_19_55
*494 FILLER_0_19_57
*495 FILLER_0_19_69
*496 FILLER_0_19_81
*497 FILLER_0_19_93
*498 FILLER_0_1_105
*499 FILLER_0_1_111
*500 FILLER_0_1_113
*501 FILLER_0_1_125
*502 FILLER_0_1_137
*503 FILLER_0_1_149
*504 FILLER_0_1_15
*505 FILLER_0_1_161
*506 FILLER_0_1_167
*507 FILLER_0_1_169
*508 FILLER_0_1_181
*509 FILLER_0_1_193
*510 FILLER_0_1_205
*511 FILLER_0_1_217
*512 FILLER_0_1_223
*513 FILLER_0_1_225
*514 FILLER_0_1_237
*515 FILLER_0_1_249
*516 FILLER_0_1_261
*517 FILLER_0_1_27
*518 FILLER_0_1_273
*519 FILLER_0_1_279
*520 FILLER_0_1_281
*521 FILLER_0_1_293
*522 FILLER_0_1_3
*523 FILLER_0_1_305
*524 FILLER_0_1_317
*525 FILLER_0_1_329
*526 FILLER_0_1_335
*527 FILLER_0_1_337
*528 FILLER_0_1_349
*529 FILLER_0_1_39
*530 FILLER_0_1_51
*531 FILLER_0_1_55
*532 FILLER_0_1_57
*533 FILLER_0_1_69
*534 FILLER_0_1_81
*535 FILLER_0_1_93
*536 FILLER_0_20_109
*537 FILLER_0_20_121
*538 FILLER_0_20_133
*539 FILLER_0_20_139
*540 FILLER_0_20_141
*541 FILLER_0_20_15
*542 FILLER_0_20_153
*543 FILLER_0_20_165
*544 FILLER_0_20_177
*545 FILLER_0_20_189
*546 FILLER_0_20_195
*547 FILLER_0_20_197
*548 FILLER_0_20_209
*549 FILLER_0_20_221
*550 FILLER_0_20_233
*551 FILLER_0_20_245
*552 FILLER_0_20_251
*553 FILLER_0_20_253
*554 FILLER_0_20_265
*555 FILLER_0_20_27
*556 FILLER_0_20_277
*557 FILLER_0_20_289
*558 FILLER_0_20_29
*559 FILLER_0_20_3
*560 FILLER_0_20_301
*561 FILLER_0_20_307
*562 FILLER_0_20_309
*563 FILLER_0_20_321
*564 FILLER_0_20_333
*565 FILLER_0_20_345
*566 FILLER_0_20_41
*567 FILLER_0_20_53
*568 FILLER_0_20_65
*569 FILLER_0_20_77
*570 FILLER_0_20_83
*571 FILLER_0_20_85
*572 FILLER_0_20_97
*573 FILLER_0_21_105
*574 FILLER_0_21_111
*575 FILLER_0_21_113
*576 FILLER_0_21_125
*577 FILLER_0_21_137
*578 FILLER_0_21_149
*579 FILLER_0_21_15
*580 FILLER_0_21_161
*581 FILLER_0_21_167
*582 FILLER_0_21_169
*583 FILLER_0_21_181
*584 FILLER_0_21_193
*585 FILLER_0_21_205
*586 FILLER_0_21_217
*587 FILLER_0_21_223
*588 FILLER_0_21_225
*589 FILLER_0_21_237
*590 FILLER_0_21_249
*591 FILLER_0_21_261
*592 FILLER_0_21_27
*593 FILLER_0_21_273
*594 FILLER_0_21_279
*595 FILLER_0_21_281
*596 FILLER_0_21_293
*597 FILLER_0_21_3
*598 FILLER_0_21_305
*599 FILLER_0_21_317
*600 FILLER_0_21_329
*601 FILLER_0_21_335
*602 FILLER_0_21_337
*603 FILLER_0_21_349
*604 FILLER_0_21_39
*605 FILLER_0_21_51
*606 FILLER_0_21_55
*607 FILLER_0_21_57
*608 FILLER_0_21_69
*609 FILLER_0_21_81
*610 FILLER_0_21_93
*611 FILLER_0_22_109
*612 FILLER_0_22_121
*613 FILLER_0_22_133
*614 FILLER_0_22_139
*615 FILLER_0_22_141
*616 FILLER_0_22_15
*617 FILLER_0_22_153
*618 FILLER_0_22_165
*619 FILLER_0_22_177
*620 FILLER_0_22_189
*621 FILLER_0_22_195
*622 FILLER_0_22_197
*623 FILLER_0_22_209
*624 FILLER_0_22_221
*625 FILLER_0_22_233
*626 FILLER_0_22_245
*627 FILLER_0_22_251
*628 FILLER_0_22_253
*629 FILLER_0_22_265
*630 FILLER_0_22_27
*631 FILLER_0_22_277
*632 FILLER_0_22_289
*633 FILLER_0_22_29
*634 FILLER_0_22_3
*635 FILLER_0_22_301
*636 FILLER_0_22_307
*637 FILLER_0_22_309
*638 FILLER_0_22_321
*639 FILLER_0_22_333
*640 FILLER_0_22_345
*641 FILLER_0_22_41
*642 FILLER_0_22_53
*643 FILLER_0_22_65
*644 FILLER_0_22_77
*645 FILLER_0_22_83
*646 FILLER_0_22_85
*647 FILLER_0_22_97
*648 FILLER_0_23_105
*649 FILLER_0_23_111
*650 FILLER_0_23_113
*651 FILLER_0_23_125
*652 FILLER_0_23_137
*653 FILLER_0_23_149
*654 FILLER_0_23_15
*655 FILLER_0_23_161
*656 FILLER_0_23_167
*657 FILLER_0_23_169
*658 FILLER_0_23_181
*659 FILLER_0_23_193
*660 FILLER_0_23_205
*661 FILLER_0_23_217
*662 FILLER_0_23_223
*663 FILLER_0_23_225
*664 FILLER_0_23_237
*665 FILLER_0_23_249
*666 FILLER_0_23_261
*667 FILLER_0_23_27
*668 FILLER_0_23_273
*669 FILLER_0_23_279
*670 FILLER_0_23_281
*671 FILLER_0_23_293
*672 FILLER_0_23_3
*673 FILLER_0_23_305
*674 FILLER_0_23_317
*675 FILLER_0_23_329
*676 FILLER_0_23_335
*677 FILLER_0_23_337
*678 FILLER_0_23_349
*679 FILLER_0_23_39
*680 FILLER_0_23_51
*681 FILLER_0_23_55
*682 FILLER_0_23_57
*683 FILLER_0_23_69
*684 FILLER_0_23_81
*685 FILLER_0_23_93
*686 FILLER_0_24_109
*687 FILLER_0_24_121
*688 FILLER_0_24_133
*689 FILLER_0_24_139
*690 FILLER_0_24_141
*691 FILLER_0_24_15
*692 FILLER_0_24_153
*693 FILLER_0_24_165
*694 FILLER_0_24_177
*695 FILLER_0_24_189
*696 FILLER_0_24_195
*697 FILLER_0_24_197
*698 FILLER_0_24_209
*699 FILLER_0_24_221
*700 FILLER_0_24_233
*701 FILLER_0_24_245
*702 FILLER_0_24_251
*703 FILLER_0_24_253
*704 FILLER_0_24_265
*705 FILLER_0_24_27
*706 FILLER_0_24_277
*707 FILLER_0_24_289
*708 FILLER_0_24_29
*709 FILLER_0_24_3
*710 FILLER_0_24_301
*711 FILLER_0_24_307
*712 FILLER_0_24_309
*713 FILLER_0_24_321
*714 FILLER_0_24_333
*715 FILLER_0_24_345
*716 FILLER_0_24_41
*717 FILLER_0_24_53
*718 FILLER_0_24_65
*719 FILLER_0_24_77
*720 FILLER_0_24_83
*721 FILLER_0_24_85
*722 FILLER_0_24_97
*723 FILLER_0_25_105
*724 FILLER_0_25_111
*725 FILLER_0_25_113
*726 FILLER_0_25_125
*727 FILLER_0_25_137
*728 FILLER_0_25_149
*729 FILLER_0_25_15
*730 FILLER_0_25_161
*731 FILLER_0_25_167
*732 FILLER_0_25_169
*733 FILLER_0_25_181
*734 FILLER_0_25_193
*735 FILLER_0_25_205
*736 FILLER_0_25_217
*737 FILLER_0_25_223
*738 FILLER_0_25_225
*739 FILLER_0_25_237
*740 FILLER_0_25_249
*741 FILLER_0_25_261
*742 FILLER_0_25_27
*743 FILLER_0_25_273
*744 FILLER_0_25_279
*745 FILLER_0_25_281
*746 FILLER_0_25_293
*747 FILLER_0_25_3
*748 FILLER_0_25_305
*749 FILLER_0_25_317
*750 FILLER_0_25_329
*751 FILLER_0_25_335
*752 FILLER_0_25_337
*753 FILLER_0_25_349
*754 FILLER_0_25_39
*755 FILLER_0_25_51
*756 FILLER_0_25_55
*757 FILLER_0_25_57
*758 FILLER_0_25_69
*759 FILLER_0_25_81
*760 FILLER_0_25_93
*761 FILLER_0_26_109
*762 FILLER_0_26_121
*763 FILLER_0_26_133
*764 FILLER_0_26_139
*765 FILLER_0_26_141
*766 FILLER_0_26_15
*767 FILLER_0_26_153
*768 FILLER_0_26_165
*769 FILLER_0_26_177
*770 FILLER_0_26_189
*771 FILLER_0_26_195
*772 FILLER_0_26_197
*773 FILLER_0_26_209
*774 FILLER_0_26_221
*775 FILLER_0_26_233
*776 FILLER_0_26_245
*777 FILLER_0_26_251
*778 FILLER_0_26_253
*779 FILLER_0_26_265
*780 FILLER_0_26_27
*781 FILLER_0_26_277
*782 FILLER_0_26_289
*783 FILLER_0_26_29
*784 FILLER_0_26_3
*785 FILLER_0_26_301
*786 FILLER_0_26_307
*787 FILLER_0_26_309
*788 FILLER_0_26_321
*789 FILLER_0_26_333
*790 FILLER_0_26_345
*791 FILLER_0_26_41
*792 FILLER_0_26_53
*793 FILLER_0_26_65
*794 FILLER_0_26_77
*795 FILLER_0_26_83
*796 FILLER_0_26_85
*797 FILLER_0_26_97
*798 FILLER_0_27_105
*799 FILLER_0_27_111
*800 FILLER_0_27_113
*801 FILLER_0_27_125
*802 FILLER_0_27_137
*803 FILLER_0_27_149
*804 FILLER_0_27_15
*805 FILLER_0_27_161
*806 FILLER_0_27_167
*807 FILLER_0_27_169
*808 FILLER_0_27_181
*809 FILLER_0_27_193
*810 FILLER_0_27_205
*811 FILLER_0_27_217
*812 FILLER_0_27_223
*813 FILLER_0_27_225
*814 FILLER_0_27_237
*815 FILLER_0_27_249
*816 FILLER_0_27_261
*817 FILLER_0_27_27
*818 FILLER_0_27_273
*819 FILLER_0_27_279
*820 FILLER_0_27_281
*821 FILLER_0_27_293
*822 FILLER_0_27_3
*823 FILLER_0_27_305
*824 FILLER_0_27_317
*825 FILLER_0_27_329
*826 FILLER_0_27_335
*827 FILLER_0_27_337
*828 FILLER_0_27_349
*829 FILLER_0_27_39
*830 FILLER_0_27_51
*831 FILLER_0_27_55
*832 FILLER_0_27_57
*833 FILLER_0_27_69
*834 FILLER_0_27_81
*835 FILLER_0_27_93
*836 FILLER_0_28_109
*837 FILLER_0_28_121
*838 FILLER_0_28_133
*839 FILLER_0_28_139
*840 FILLER_0_28_141
*841 FILLER_0_28_15
*842 FILLER_0_28_153
*843 FILLER_0_28_165
*844 FILLER_0_28_177
*845 FILLER_0_28_189
*846 FILLER_0_28_195
*847 FILLER_0_28_197
*848 FILLER_0_28_209
*849 FILLER_0_28_221
*850 FILLER_0_28_233
*851 FILLER_0_28_245
*852 FILLER_0_28_251
*853 FILLER_0_28_253
*854 FILLER_0_28_265
*855 FILLER_0_28_27
*856 FILLER_0_28_277
*857 FILLER_0_28_289
*858 FILLER_0_28_29
*859 FILLER_0_28_3
*860 FILLER_0_28_301
*861 FILLER_0_28_307
*862 FILLER_0_28_309
*863 FILLER_0_28_321
*864 FILLER_0_28_333
*865 FILLER_0_28_345
*866 FILLER_0_28_41
*867 FILLER_0_28_53
*868 FILLER_0_28_65
*869 FILLER_0_28_77
*870 FILLER_0_28_83
*871 FILLER_0_28_85
*872 FILLER_0_28_97
*873 FILLER_0_29_105
*874 FILLER_0_29_111
*875 FILLER_0_29_113
*876 FILLER_0_29_125
*877 FILLER_0_29_137
*878 FILLER_0_29_149
*879 FILLER_0_29_15
*880 FILLER_0_29_161
*881 FILLER_0_29_167
*882 FILLER_0_29_169
*883 FILLER_0_29_181
*884 FILLER_0_29_193
*885 FILLER_0_29_205
*886 FILLER_0_29_217
*887 FILLER_0_29_223
*888 FILLER_0_29_225
*889 FILLER_0_29_237
*890 FILLER_0_29_249
*891 FILLER_0_29_261
*892 FILLER_0_29_27
*893 FILLER_0_29_273
*894 FILLER_0_29_279
*895 FILLER_0_29_281
*896 FILLER_0_29_293
*897 FILLER_0_29_3
*898 FILLER_0_29_305
*899 FILLER_0_29_317
*900 FILLER_0_29_329
*901 FILLER_0_29_335
*902 FILLER_0_29_337
*903 FILLER_0_29_349
*904 FILLER_0_29_39
*905 FILLER_0_29_51
*906 FILLER_0_29_55
*907 FILLER_0_29_57
*908 FILLER_0_29_69
*909 FILLER_0_29_81
*910 FILLER_0_29_93
*911 FILLER_0_2_109
*912 FILLER_0_2_121
*913 FILLER_0_2_133
*914 FILLER_0_2_139
*915 FILLER_0_2_141
*916 FILLER_0_2_15
*917 FILLER_0_2_153
*918 FILLER_0_2_165
*919 FILLER_0_2_177
*920 FILLER_0_2_189
*921 FILLER_0_2_195
*922 FILLER_0_2_197
*923 FILLER_0_2_209
*924 FILLER_0_2_221
*925 FILLER_0_2_233
*926 FILLER_0_2_245
*927 FILLER_0_2_251
*928 FILLER_0_2_253
*929 FILLER_0_2_265
*930 FILLER_0_2_27
*931 FILLER_0_2_277
*932 FILLER_0_2_289
*933 FILLER_0_2_29
*934 FILLER_0_2_3
*935 FILLER_0_2_301
*936 FILLER_0_2_307
*937 FILLER_0_2_309
*938 FILLER_0_2_321
*939 FILLER_0_2_333
*940 FILLER_0_2_345
*941 FILLER_0_2_41
*942 FILLER_0_2_53
*943 FILLER_0_2_65
*944 FILLER_0_2_77
*945 FILLER_0_2_83
*946 FILLER_0_2_85
*947 FILLER_0_2_97
*948 FILLER_0_30_109
*949 FILLER_0_30_121
*950 FILLER_0_30_133
*951 FILLER_0_30_139
*952 FILLER_0_30_141
*953 FILLER_0_30_15
*954 FILLER_0_30_153
*955 FILLER_0_30_165
*956 FILLER_0_30_177
*957 FILLER_0_30_189
*958 FILLER_0_30_195
*959 FILLER_0_30_197
*960 FILLER_0_30_209
*961 FILLER_0_30_221
*962 FILLER_0_30_233
*963 FILLER_0_30_245
*964 FILLER_0_30_251
*965 FILLER_0_30_253
*966 FILLER_0_30_265
*967 FILLER_0_30_27
*968 FILLER_0_30_277
*969 FILLER_0_30_289
*970 FILLER_0_30_29
*971 FILLER_0_30_3
*972 FILLER_0_30_301
*973 FILLER_0_30_307
*974 FILLER_0_30_309
*975 FILLER_0_30_321
*976 FILLER_0_30_333
*977 FILLER_0_30_345
*978 FILLER_0_30_41
*979 FILLER_0_30_53
*980 FILLER_0_30_65
*981 FILLER_0_30_77
*982 FILLER_0_30_83
*983 FILLER_0_30_85
*984 FILLER_0_30_97
*985 FILLER_0_31_105
*986 FILLER_0_31_111
*987 FILLER_0_31_113
*988 FILLER_0_31_125
*989 FILLER_0_31_137
*990 FILLER_0_31_149
*991 FILLER_0_31_15
*992 FILLER_0_31_161
*993 FILLER_0_31_167
*994 FILLER_0_31_169
*995 FILLER_0_31_181
*996 FILLER_0_31_193
*997 FILLER_0_31_205
*998 FILLER_0_31_217
*999 FILLER_0_31_223
*1000 FILLER_0_31_225
*1001 FILLER_0_31_237
*1002 FILLER_0_31_249
*1003 FILLER_0_31_261
*1004 FILLER_0_31_27
*1005 FILLER_0_31_273
*1006 FILLER_0_31_279
*1007 FILLER_0_31_281
*1008 FILLER_0_31_293
*1009 FILLER_0_31_3
*1010 FILLER_0_31_305
*1011 FILLER_0_31_317
*1012 FILLER_0_31_329
*1013 FILLER_0_31_335
*1014 FILLER_0_31_337
*1015 FILLER_0_31_349
*1016 FILLER_0_31_39
*1017 FILLER_0_31_51
*1018 FILLER_0_31_55
*1019 FILLER_0_31_57
*1020 FILLER_0_31_69
*1021 FILLER_0_31_81
*1022 FILLER_0_31_93
*1023 FILLER_0_32_109
*1024 FILLER_0_32_121
*1025 FILLER_0_32_133
*1026 FILLER_0_32_139
*1027 FILLER_0_32_141
*1028 FILLER_0_32_15
*1029 FILLER_0_32_153
*1030 FILLER_0_32_165
*1031 FILLER_0_32_177
*1032 FILLER_0_32_189
*1033 FILLER_0_32_195
*1034 FILLER_0_32_197
*1035 FILLER_0_32_209
*1036 FILLER_0_32_221
*1037 FILLER_0_32_233
*1038 FILLER_0_32_245
*1039 FILLER_0_32_251
*1040 FILLER_0_32_253
*1041 FILLER_0_32_265
*1042 FILLER_0_32_27
*1043 FILLER_0_32_277
*1044 FILLER_0_32_289
*1045 FILLER_0_32_29
*1046 FILLER_0_32_3
*1047 FILLER_0_32_301
*1048 FILLER_0_32_307
*1049 FILLER_0_32_309
*1050 FILLER_0_32_321
*1051 FILLER_0_32_333
*1052 FILLER_0_32_345
*1053 FILLER_0_32_41
*1054 FILLER_0_32_53
*1055 FILLER_0_32_65
*1056 FILLER_0_32_77
*1057 FILLER_0_32_83
*1058 FILLER_0_32_85
*1059 FILLER_0_32_97
*1060 FILLER_0_33_105
*1061 FILLER_0_33_111
*1062 FILLER_0_33_113
*1063 FILLER_0_33_125
*1064 FILLER_0_33_137
*1065 FILLER_0_33_149
*1066 FILLER_0_33_15
*1067 FILLER_0_33_161
*1068 FILLER_0_33_167
*1069 FILLER_0_33_169
*1070 FILLER_0_33_181
*1071 FILLER_0_33_193
*1072 FILLER_0_33_205
*1073 FILLER_0_33_217
*1074 FILLER_0_33_223
*1075 FILLER_0_33_225
*1076 FILLER_0_33_237
*1077 FILLER_0_33_249
*1078 FILLER_0_33_261
*1079 FILLER_0_33_27
*1080 FILLER_0_33_273
*1081 FILLER_0_33_279
*1082 FILLER_0_33_281
*1083 FILLER_0_33_293
*1084 FILLER_0_33_3
*1085 FILLER_0_33_305
*1086 FILLER_0_33_317
*1087 FILLER_0_33_329
*1088 FILLER_0_33_335
*1089 FILLER_0_33_337
*1090 FILLER_0_33_349
*1091 FILLER_0_33_39
*1092 FILLER_0_33_51
*1093 FILLER_0_33_55
*1094 FILLER_0_33_57
*1095 FILLER_0_33_69
*1096 FILLER_0_33_81
*1097 FILLER_0_33_93
*1098 FILLER_0_34_109
*1099 FILLER_0_34_121
*1100 FILLER_0_34_133
*1101 FILLER_0_34_139
*1102 FILLER_0_34_141
*1103 FILLER_0_34_15
*1104 FILLER_0_34_153
*1105 FILLER_0_34_165
*1106 FILLER_0_34_177
*1107 FILLER_0_34_189
*1108 FILLER_0_34_195
*1109 FILLER_0_34_197
*1110 FILLER_0_34_209
*1111 FILLER_0_34_221
*1112 FILLER_0_34_229
*1113 FILLER_0_34_251
*1114 FILLER_0_34_253
*1115 FILLER_0_34_265
*1116 FILLER_0_34_27
*1117 FILLER_0_34_270
*1118 FILLER_0_34_282
*1119 FILLER_0_34_29
*1120 FILLER_0_34_3
*1121 FILLER_0_34_309
*1122 FILLER_0_34_321
*1123 FILLER_0_34_333
*1124 FILLER_0_34_345
*1125 FILLER_0_34_41
*1126 FILLER_0_34_53
*1127 FILLER_0_34_65
*1128 FILLER_0_34_77
*1129 FILLER_0_34_83
*1130 FILLER_0_34_85
*1131 FILLER_0_34_97
*1132 FILLER_0_35_105
*1133 FILLER_0_35_111
*1134 FILLER_0_35_113
*1135 FILLER_0_35_125
*1136 FILLER_0_35_137
*1137 FILLER_0_35_149
*1138 FILLER_0_35_15
*1139 FILLER_0_35_161
*1140 FILLER_0_35_167
*1141 FILLER_0_35_169
*1142 FILLER_0_35_181
*1143 FILLER_0_35_193
*1144 FILLER_0_35_205
*1145 FILLER_0_35_217
*1146 FILLER_0_35_249
*1147 FILLER_0_35_261
*1148 FILLER_0_35_27
*1149 FILLER_0_35_277
*1150 FILLER_0_35_297
*1151 FILLER_0_35_3
*1152 FILLER_0_35_309
*1153 FILLER_0_35_321
*1154 FILLER_0_35_333
*1155 FILLER_0_35_337
*1156 FILLER_0_35_349
*1157 FILLER_0_35_39
*1158 FILLER_0_35_51
*1159 FILLER_0_35_55
*1160 FILLER_0_35_57
*1161 FILLER_0_35_69
*1162 FILLER_0_35_81
*1163 FILLER_0_35_93
*1164 FILLER_0_36_109
*1165 FILLER_0_36_121
*1166 FILLER_0_36_133
*1167 FILLER_0_36_139
*1168 FILLER_0_36_141
*1169 FILLER_0_36_15
*1170 FILLER_0_36_153
*1171 FILLER_0_36_165
*1172 FILLER_0_36_177
*1173 FILLER_0_36_190
*1174 FILLER_0_36_197
*1175 FILLER_0_36_211
*1176 FILLER_0_36_219
*1177 FILLER_0_36_234
*1178 FILLER_0_36_253
*1179 FILLER_0_36_27
*1180 FILLER_0_36_279
*1181 FILLER_0_36_29
*1182 FILLER_0_36_297
*1183 FILLER_0_36_3
*1184 FILLER_0_36_305
*1185 FILLER_0_36_309
*1186 FILLER_0_36_321
*1187 FILLER_0_36_333
*1188 FILLER_0_36_345
*1189 FILLER_0_36_41
*1190 FILLER_0_36_53
*1191 FILLER_0_36_65
*1192 FILLER_0_36_77
*1193 FILLER_0_36_83
*1194 FILLER_0_36_85
*1195 FILLER_0_36_97
*1196 FILLER_0_37_105
*1197 FILLER_0_37_111
*1198 FILLER_0_37_113
*1199 FILLER_0_37_125
*1200 FILLER_0_37_137
*1201 FILLER_0_37_149
*1202 FILLER_0_37_15
*1203 FILLER_0_37_161
*1204 FILLER_0_37_167
*1205 FILLER_0_37_172
*1206 FILLER_0_37_193
*1207 FILLER_0_37_197
*1208 FILLER_0_37_223
*1209 FILLER_0_37_264
*1210 FILLER_0_37_27
*1211 FILLER_0_37_275
*1212 FILLER_0_37_279
*1213 FILLER_0_37_3
*1214 FILLER_0_37_301
*1215 FILLER_0_37_313
*1216 FILLER_0_37_325
*1217 FILLER_0_37_333
*1218 FILLER_0_37_337
*1219 FILLER_0_37_349
*1220 FILLER_0_37_39
*1221 FILLER_0_37_51
*1222 FILLER_0_37_55
*1223 FILLER_0_37_57
*1224 FILLER_0_37_69
*1225 FILLER_0_37_81
*1226 FILLER_0_37_93
*1227 FILLER_0_38_104
*1228 FILLER_0_38_110
*1229 FILLER_0_38_116
*1230 FILLER_0_38_122
*1231 FILLER_0_38_128
*1232 FILLER_0_38_134
*1233 FILLER_0_38_141
*1234 FILLER_0_38_146
*1235 FILLER_0_38_15
*1236 FILLER_0_38_152
*1237 FILLER_0_38_158
*1238 FILLER_0_38_164
*1239 FILLER_0_38_179
*1240 FILLER_0_38_190
*1241 FILLER_0_38_197
*1242 FILLER_0_38_205
*1243 FILLER_0_38_209
*1244 FILLER_0_38_217
*1245 FILLER_0_38_225
*1246 FILLER_0_38_237
*1247 FILLER_0_38_249
*1248 FILLER_0_38_269
*1249 FILLER_0_38_27
*1250 FILLER_0_38_278
*1251 FILLER_0_38_281
*1252 FILLER_0_38_29
*1253 FILLER_0_38_293
*1254 FILLER_0_38_3
*1255 FILLER_0_38_309
*1256 FILLER_0_38_321
*1257 FILLER_0_38_333
*1258 FILLER_0_38_337
*1259 FILLER_0_38_349
*1260 FILLER_0_38_41
*1261 FILLER_0_38_53
*1262 FILLER_0_38_57
*1263 FILLER_0_38_68
*1264 FILLER_0_38_74
*1265 FILLER_0_38_80
*1266 FILLER_0_38_88
*1267 FILLER_0_38_92
*1268 FILLER_0_38_98
*1269 FILLER_0_3_105
*1270 FILLER_0_3_111
*1271 FILLER_0_3_113
*1272 FILLER_0_3_125
*1273 FILLER_0_3_137
*1274 FILLER_0_3_149
*1275 FILLER_0_3_15
*1276 FILLER_0_3_161
*1277 FILLER_0_3_167
*1278 FILLER_0_3_169
*1279 FILLER_0_3_181
*1280 FILLER_0_3_193
*1281 FILLER_0_3_205
*1282 FILLER_0_3_217
*1283 FILLER_0_3_223
*1284 FILLER_0_3_225
*1285 FILLER_0_3_237
*1286 FILLER_0_3_249
*1287 FILLER_0_3_261
*1288 FILLER_0_3_27
*1289 FILLER_0_3_273
*1290 FILLER_0_3_279
*1291 FILLER_0_3_281
*1292 FILLER_0_3_293
*1293 FILLER_0_3_3
*1294 FILLER_0_3_305
*1295 FILLER_0_3_317
*1296 FILLER_0_3_329
*1297 FILLER_0_3_335
*1298 FILLER_0_3_337
*1299 FILLER_0_3_349
*1300 FILLER_0_3_39
*1301 FILLER_0_3_51
*1302 FILLER_0_3_55
*1303 FILLER_0_3_57
*1304 FILLER_0_3_69
*1305 FILLER_0_3_81
*1306 FILLER_0_3_93
*1307 FILLER_0_4_109
*1308 FILLER_0_4_121
*1309 FILLER_0_4_133
*1310 FILLER_0_4_139
*1311 FILLER_0_4_141
*1312 FILLER_0_4_15
*1313 FILLER_0_4_153
*1314 FILLER_0_4_165
*1315 FILLER_0_4_177
*1316 FILLER_0_4_189
*1317 FILLER_0_4_195
*1318 FILLER_0_4_197
*1319 FILLER_0_4_209
*1320 FILLER_0_4_221
*1321 FILLER_0_4_233
*1322 FILLER_0_4_245
*1323 FILLER_0_4_251
*1324 FILLER_0_4_253
*1325 FILLER_0_4_265
*1326 FILLER_0_4_27
*1327 FILLER_0_4_277
*1328 FILLER_0_4_289
*1329 FILLER_0_4_29
*1330 FILLER_0_4_3
*1331 FILLER_0_4_301
*1332 FILLER_0_4_307
*1333 FILLER_0_4_309
*1334 FILLER_0_4_321
*1335 FILLER_0_4_333
*1336 FILLER_0_4_345
*1337 FILLER_0_4_41
*1338 FILLER_0_4_53
*1339 FILLER_0_4_65
*1340 FILLER_0_4_77
*1341 FILLER_0_4_83
*1342 FILLER_0_4_85
*1343 FILLER_0_4_97
*1344 FILLER_0_5_105
*1345 FILLER_0_5_111
*1346 FILLER_0_5_113
*1347 FILLER_0_5_125
*1348 FILLER_0_5_137
*1349 FILLER_0_5_149
*1350 FILLER_0_5_15
*1351 FILLER_0_5_161
*1352 FILLER_0_5_167
*1353 FILLER_0_5_169
*1354 FILLER_0_5_181
*1355 FILLER_0_5_193
*1356 FILLER_0_5_205
*1357 FILLER_0_5_217
*1358 FILLER_0_5_223
*1359 FILLER_0_5_225
*1360 FILLER_0_5_237
*1361 FILLER_0_5_249
*1362 FILLER_0_5_261
*1363 FILLER_0_5_27
*1364 FILLER_0_5_273
*1365 FILLER_0_5_279
*1366 FILLER_0_5_281
*1367 FILLER_0_5_293
*1368 FILLER_0_5_3
*1369 FILLER_0_5_305
*1370 FILLER_0_5_317
*1371 FILLER_0_5_329
*1372 FILLER_0_5_335
*1373 FILLER_0_5_337
*1374 FILLER_0_5_349
*1375 FILLER_0_5_39
*1376 FILLER_0_5_51
*1377 FILLER_0_5_55
*1378 FILLER_0_5_57
*1379 FILLER_0_5_69
*1380 FILLER_0_5_81
*1381 FILLER_0_5_93
*1382 FILLER_0_6_109
*1383 FILLER_0_6_121
*1384 FILLER_0_6_133
*1385 FILLER_0_6_139
*1386 FILLER_0_6_141
*1387 FILLER_0_6_15
*1388 FILLER_0_6_153
*1389 FILLER_0_6_165
*1390 FILLER_0_6_177
*1391 FILLER_0_6_189
*1392 FILLER_0_6_195
*1393 FILLER_0_6_197
*1394 FILLER_0_6_209
*1395 FILLER_0_6_221
*1396 FILLER_0_6_233
*1397 FILLER_0_6_245
*1398 FILLER_0_6_251
*1399 FILLER_0_6_253
*1400 FILLER_0_6_265
*1401 FILLER_0_6_27
*1402 FILLER_0_6_277
*1403 FILLER_0_6_289
*1404 FILLER_0_6_29
*1405 FILLER_0_6_3
*1406 FILLER_0_6_301
*1407 FILLER_0_6_307
*1408 FILLER_0_6_309
*1409 FILLER_0_6_321
*1410 FILLER_0_6_333
*1411 FILLER_0_6_345
*1412 FILLER_0_6_41
*1413 FILLER_0_6_53
*1414 FILLER_0_6_65
*1415 FILLER_0_6_77
*1416 FILLER_0_6_83
*1417 FILLER_0_6_85
*1418 FILLER_0_6_97
*1419 FILLER_0_7_105
*1420 FILLER_0_7_111
*1421 FILLER_0_7_113
*1422 FILLER_0_7_125
*1423 FILLER_0_7_137
*1424 FILLER_0_7_149
*1425 FILLER_0_7_15
*1426 FILLER_0_7_161
*1427 FILLER_0_7_167
*1428 FILLER_0_7_169
*1429 FILLER_0_7_181
*1430 FILLER_0_7_193
*1431 FILLER_0_7_205
*1432 FILLER_0_7_217
*1433 FILLER_0_7_223
*1434 FILLER_0_7_225
*1435 FILLER_0_7_237
*1436 FILLER_0_7_249
*1437 FILLER_0_7_261
*1438 FILLER_0_7_27
*1439 FILLER_0_7_273
*1440 FILLER_0_7_279
*1441 FILLER_0_7_281
*1442 FILLER_0_7_293
*1443 FILLER_0_7_3
*1444 FILLER_0_7_305
*1445 FILLER_0_7_317
*1446 FILLER_0_7_329
*1447 FILLER_0_7_335
*1448 FILLER_0_7_337
*1449 FILLER_0_7_349
*1450 FILLER_0_7_39
*1451 FILLER_0_7_51
*1452 FILLER_0_7_55
*1453 FILLER_0_7_57
*1454 FILLER_0_7_69
*1455 FILLER_0_7_81
*1456 FILLER_0_7_93
*1457 FILLER_0_8_109
*1458 FILLER_0_8_121
*1459 FILLER_0_8_133
*1460 FILLER_0_8_139
*1461 FILLER_0_8_141