*SPEF "ieee 1481-1999"
*DESIGN "tt_um_diadatp_spigot_e"
*DATE "11:11:11 Fri 11 11, 1111"
*VENDOR "OpenRCX"
*PROGRAM "Parallel Extraction"
*VERSION "1.0"
*DESIGN_FLOW "NAME_SCOPE LOCAL" "PIN_CAP NONE"
*DIVIDER /
*DELIMITER :
*BUS_DELIMITER []
*T_UNIT 1 NS
*C_UNIT 1 PF
*R_UNIT 1 OHM
*L_UNIT 1 HENRY

*NAME_MAP
*3 clk
*4 ena
*5 rst_n
*6 ui_in[0]
*7 ui_in[1]
*8 ui_in[2]
*9 ui_in[3]
*10 ui_in[4]
*11 ui_in[5]
*12 ui_in[6]
*13 ui_in[7]
*14 uio_in[0]
*15 uio_in[1]
*16 uio_in[2]
*17 uio_in[3]
*18 uio_in[4]
*19 uio_in[5]
*20 uio_in[6]
*21 uio_in[7]
*22 net6
*23 net7
*24 net8
*25 net9
*26 net10
*27 net11
*28 net12
*29 net13
*30 uio_out[0]
*31 uio_out[1]
*32 uio_out[2]
*33 uio_out[3]
*34 uio_out[4]
*35 uio_out[5]
*36 uio_out[6]
*37 uio_out[7]
*38 uo_out[0]
*39 uo_out[1]
*40 uo_out[2]
*41 uo_out[3]
*42 uo_out[4]
*43 uo_out[5]
*44 uo_out[6]
*45 uo_out[7]
*46 _0000_
*47 _0001_
*48 _0002_
*49 _0003_
*50 _0004_
*51 _0005_
*52 _0006_
*53 _0007_
*54 _0008_
*55 _0009_
*56 _0010_
*57 _0011_
*58 _0012_
*59 _0013_
*60 _0014_
*61 _0015_
*62 _0016_
*63 _0017_
*64 _0018_
*65 _0019_
*66 _0020_
*67 _0021_
*68 _0022_
*69 _0023_
*70 _0024_
*71 _0025_
*72 _0026_
*73 _0027_
*74 _0028_
*75 _0029_
*76 _0030_
*77 _0031_
*78 _0032_
*79 _0033_
*80 _0034_
*81 _0035_
*82 _0036_
*83 _0037_
*84 _0038_
*85 _0039_
*86 _0040_
*87 _0041_
*88 _0042_
*89 _0043_
*90 _0044_
*91 _0045_
*92 _0046_
*93 _0047_
*94 _0048_
*95 _0049_
*96 _0050_
*97 _0051_
*98 _0052_
*99 _0053_
*100 _0054_
*101 _0055_
*102 _0056_
*103 _0057_
*104 _0058_
*105 _0059_
*106 _0060_
*107 _0061_
*108 _0062_
*109 _0063_
*110 _0064_
*111 _0065_
*112 _0066_
*113 _0067_
*114 _0068_
*115 _0069_
*116 _0070_
*117 _0071_
*118 _0072_
*119 _0073_
*120 _0074_
*121 _0075_
*122 _0076_
*123 _0077_
*124 _0078_
*125 _0079_
*126 _0080_
*127 _0081_
*128 _0082_
*129 _0083_
*130 _0084_
*131 _0085_
*132 _0086_
*133 _0087_
*134 _0088_
*135 _0089_
*136 _0090_
*137 _0091_
*138 _0092_
*139 _0093_
*140 _0094_
*141 _0095_
*142 _0096_
*143 _0097_
*144 _0098_
*145 _0099_
*146 _0100_
*147 _0101_
*148 _0102_
*149 _0103_
*150 _0104_
*151 _0105_
*152 _0106_
*153 _0107_
*154 _0108_
*155 _0109_
*156 _0110_
*157 _0111_
*158 _0112_
*159 _0113_
*160 _0114_
*161 _0115_
*162 _0116_
*163 _0117_
*164 _0118_
*165 _0119_
*166 _0120_
*167 _0121_
*168 _0122_
*169 _0123_
*170 _0124_
*171 _0125_
*172 _0126_
*173 _0127_
*174 _0128_
*175 _0129_
*176 _0130_
*177 _0131_
*178 _0132_
*179 _0133_
*180 _0134_
*181 _0135_
*182 _0136_
*183 _0137_
*184 _0138_
*185 _0139_
*186 _0140_
*187 _0141_
*188 _0142_
*189 _0143_
*190 _0144_
*191 _0145_
*192 _0146_
*193 _0147_
*194 _0148_
*195 _0149_
*196 _0150_
*197 _0151_
*198 _0152_
*199 _0153_
*200 _0154_
*201 _0155_
*202 _0156_
*203 _0157_
*204 _0158_
*205 _0159_
*206 _0160_
*207 _0161_
*208 _0162_
*209 _0163_
*210 _0164_
*211 _0165_
*212 _0166_
*213 _0167_
*214 _0168_
*215 _0169_
*216 _0170_
*217 _0171_
*218 _0172_
*219 _0173_
*220 _0174_
*221 _0175_
*222 _0176_
*223 _0177_
*224 _0178_
*225 _0179_
*226 _0180_
*227 _0181_
*228 _0182_
*229 _0183_
*230 _0184_
*231 _0185_
*232 _0186_
*233 _0187_
*234 _0188_
*235 _0189_
*236 _0190_
*237 _0191_
*238 _0192_
*239 _0193_
*240 _0194_
*241 _0195_
*242 _0196_
*243 _0197_
*244 _0198_
*245 _0199_
*246 _0200_
*247 _0201_
*248 _0202_
*249 _0203_
*250 _0204_
*251 _0205_
*252 _0206_
*253 _0207_
*254 _0208_
*255 _0209_
*256 _0210_
*257 _0211_
*258 _0212_
*259 _0213_
*260 _0214_
*261 _0215_
*262 _0216_
*263 _0217_
*264 _0218_
*265 _0219_
*266 _0220_
*267 _0221_
*268 _0222_
*269 _0223_
*270 _0224_
*271 _0225_
*272 _0226_
*273 _0227_
*274 _0228_
*275 _0229_
*276 _0230_
*277 _0231_
*278 _0232_
*279 _0233_
*280 _0234_
*281 _0235_
*282 _0236_
*283 _0237_
*284 _0238_
*285 _0239_
*286 _0240_
*287 _0241_
*288 _0242_
*289 _0243_
*290 _0244_
*291 _0245_
*292 _0246_
*293 _0247_
*294 _0248_
*295 _0249_
*296 _0250_
*297 _0251_
*298 _0252_
*299 _0253_
*300 _0254_
*301 _0255_
*302 _0256_
*303 _0257_
*304 _0258_
*305 _0259_
*306 _0260_
*307 _0261_
*308 _0262_
*309 _0263_
*310 _0264_
*311 _0265_
*312 _0266_
*313 _0267_
*314 _0268_
*315 _0269_
*316 _0270_
*317 _0271_
*318 _0272_
*319 _0273_
*320 _0274_
*321 _0275_
*322 _0276_
*323 _0277_
*324 _0278_
*325 _0279_
*326 _0280_
*327 _0281_
*328 _0282_
*329 _0283_
*330 _0284_
*331 _0285_
*332 _0286_
*333 _0287_
*334 _0288_
*335 _0289_
*336 _0290_
*337 _0291_
*338 _0292_
*339 _0293_
*340 _0294_
*341 _0295_
*342 _0296_
*343 _0297_
*344 _0298_
*345 _0299_
*346 _0300_
*347 _0301_
*348 _0302_
*349 _0303_
*350 _0304_
*351 _0305_
*352 _0306_
*353 _0307_
*354 _0308_
*355 _0309_
*356 _0310_
*357 _0311_
*358 _0312_
*359 _0313_
*360 _0314_
*361 _0315_
*362 _0316_
*363 _0317_
*364 _0318_
*365 _0319_
*366 _0320_
*367 _0321_
*368 _0322_
*369 _0323_
*370 _0324_
*371 _0325_
*372 _0326_
*373 _0327_
*374 _0328_
*375 _0329_
*376 _0330_
*377 _0331_
*378 _0332_
*379 _0333_
*380 _0334_
*381 _0335_
*382 _0336_
*383 _0337_
*384 _0338_
*385 _0339_
*386 _0340_
*387 _0341_
*388 _0342_
*389 _0343_
*390 _0344_
*391 _0345_
*392 _0346_
*393 _0347_
*394 _0348_
*395 _0349_
*396 _0350_
*397 _0351_
*398 _0352_
*399 _0353_
*400 _0354_
*401 _0355_
*402 _0356_
*403 _0357_
*404 _0358_
*405 _0359_
*406 _0360_
*407 _0361_
*408 _0362_
*409 _0363_
*410 _0364_
*411 _0365_
*412 _0366_
*413 _0367_
*414 _0368_
*415 _0369_
*416 _0370_
*417 _0371_
*418 _0372_
*419 _0373_
*420 _0374_
*421 _0375_
*422 _0376_
*423 _0377_
*424 _0378_
*425 _0379_
*426 _0380_
*427 _0381_
*428 _0382_
*429 _0383_
*430 _0384_
*431 _0385_
*432 _0386_
*433 _0387_
*434 _0388_
*435 _0389_
*436 _0390_
*437 _0391_
*438 _0392_
*439 _0393_
*440 _0394_
*441 _0395_
*442 _0396_
*443 _0397_
*444 _0398_
*445 _0399_
*446 _0400_
*447 _0401_
*448 _0402_
*449 _0403_
*450 _0404_
*451 _0405_
*452 _0406_
*453 _0407_
*454 _0408_
*455 _0409_
*456 _0410_
*457 _0411_
*458 _0412_
*459 _0413_
*460 _0414_
*461 _0415_
*462 _0416_
*463 _0417_
*464 _0418_
*465 _0419_
*466 _0420_
*467 _0421_
*468 _0422_
*469 _0423_
*470 _0424_
*471 _0425_
*472 _0426_
*473 _0427_
*474 _0428_
*475 _0429_
*476 _0430_
*477 _0431_
*478 _0432_
*479 _0433_
*480 _0434_
*481 _0435_
*482 _0436_
*483 _0437_
*484 _0438_
*485 _0439_
*486 _0440_
*487 _0441_
*488 _0442_
*489 _0443_
*490 _0444_
*491 _0445_
*492 _0446_
*493 _0447_
*494 _0448_
*495 _0449_
*496 _0450_
*497 _0451_
*498 _0452_
*499 _0453_
*500 _0454_
*501 _0455_
*502 _0456_
*503 _0457_
*504 _0458_
*505 _0459_
*506 _0460_
*507 _0461_
*508 _0462_
*509 _0463_
*510 _0464_
*511 _0465_
*512 _0466_
*513 _0467_
*514 _0468_
*515 _0469_
*516 _0470_
*517 _0471_
*518 _0472_
*519 _0473_
*520 _0474_
*521 _0475_
*522 _0476_
*523 _0477_
*524 _0478_
*525 _0479_
*526 _0480_
*527 _0481_
*528 _0482_
*529 _0483_
*530 _0484_
*531 _0485_
*532 _0486_
*533 _0487_
*534 _0488_
*535 _0489_
*536 _0490_
*537 _0491_
*538 _0492_
*539 _0493_
*540 _0494_
*541 _0495_
*542 _0496_
*543 _0497_
*544 _0498_
*545 _0499_
*546 _0500_
*547 _0501_
*548 _0502_
*549 _0503_
*550 _0504_
*551 _0505_
*552 _0506_
*553 _0507_
*554 _0508_
*555 _0509_
*556 _0510_
*557 _0511_
*558 _0512_
*559 _0513_
*560 _0514_
*561 _0515_
*562 _0516_
*563 _0517_
*564 _0518_
*565 _0519_
*566 _0520_
*567 _0521_
*568 _0522_
*569 _0523_
*570 _0524_
*571 _0525_
*572 _0526_
*573 _0527_
*574 _0528_
*575 _0529_
*576 _0530_
*577 _0531_
*578 _0532_
*579 _0533_
*580 _0534_
*581 _0535_
*582 _0536_
*583 _0537_
*584 _0538_
*585 _0539_
*586 _0540_
*587 _0541_
*588 _0542_
*589 _0543_
*590 _0544_
*591 _0545_
*592 _0546_
*593 _0547_
*594 _0548_
*595 _0549_
*596 _0550_
*597 _0551_
*598 _0552_
*599 _0553_
*600 _0554_
*601 _0555_
*602 _0556_
*603 _0557_
*604 _0558_
*605 _0559_
*606 _0560_
*607 _0561_
*608 _0562_
*609 _0563_
*610 _0564_
*611 _0565_
*612 _0566_
*613 _0567_
*614 _0568_
*615 _0569_
*616 _0570_
*617 _0571_
*618 _0572_
*619 _0573_
*620 _0574_
*621 _0575_
*622 _0576_
*623 _0577_
*624 _0578_
*625 _0579_
*626 _0580_
*627 _0581_
*628 _0582_
*629 _0583_
*630 _0584_
*631 _0585_
*632 _0586_
*633 _0587_
*634 _0588_
*635 _0589_
*636 _0590_
*637 _0591_
*638 _0592_
*639 _0593_
*640 _0594_
*641 _0595_
*642 _0596_
*643 _0597_
*644 _0598_
*645 _0599_
*646 _0600_
*647 _0601_
*648 _0602_
*649 _0603_
*650 _0604_
*651 _0605_
*652 _0606_
*653 _0607_
*654 _0608_
*655 _0609_
*656 _0610_
*657 _0611_
*658 _0612_
*659 _0613_
*660 _0614_
*661 _0615_
*662 _0616_
*663 _0617_
*664 _0618_
*665 _0619_
*666 _0620_
*667 _0621_
*668 _0622_
*669 _0623_
*670 _0624_
*671 _0625_
*672 _0626_
*673 _0627_
*674 _0628_
*675 _0629_
*676 _0630_
*677 _0631_
*678 _0632_
*679 _0633_
*680 _0634_
*681 _0635_
*682 _0636_
*683 _0637_
*684 _0638_
*685 _0639_
*686 _0640_
*687 _0641_
*688 _0642_
*689 _0643_
*690 _0644_
*691 _0645_
*692 _0646_
*693 _0647_
*694 _0648_
*695 _0649_
*696 _0650_
*697 _0651_
*698 _0652_
*699 _0653_
*700 _0654_
*701 _0655_
*702 _0656_
*703 _0657_
*704 _0658_
*705 _0659_
*706 _0660_
*707 _0661_
*708 _0662_
*709 _0663_
*710 clknet_0_clk
*711 clknet_1_0__leaf_clk
*712 clknet_1_1__leaf_clk
*713 clknet_leaf_0_clk
*714 clknet_leaf_10_clk
*715 clknet_leaf_11_clk
*716 clknet_leaf_1_clk
*717 clknet_leaf_2_clk
*718 clknet_leaf_3_clk
*719 clknet_leaf_4_clk
*720 clknet_leaf_5_clk
*721 clknet_leaf_6_clk
*722 clknet_leaf_7_clk
*723 clknet_leaf_8_clk
*724 clknet_leaf_9_clk
*725 i_TopModule\._zz_accumulator\[1\]
*726 i_TopModule\._zz_accumulator\[2\]
*727 i_TopModule\._zz_accumulator_1\[0\]
*728 i_TopModule\._zz_accumulator_3\[1\]
*729 i_TopModule\._zz_accumulator_3\[2\]
*730 i_TopModule\._zz_accumulator_3\[3\]
*731 i_TopModule\._zz_accumulator_3\[4\]
*732 i_TopModule\._zz_diff\[0\]
*733 i_TopModule\._zz_diff\[1\]
*734 i_TopModule\._zz_diff\[2\]
*735 i_TopModule\._zz_diff\[3\]
*736 i_TopModule\._zz_diff\[4\]
*737 i_TopModule\._zz_diff\[5\]
*738 i_TopModule\.accumulator\[10\]
*739 i_TopModule\.accumulator\[11\]
*740 i_TopModule\.accumulator\[12\]
*741 i_TopModule\.accumulator\[13\]
*742 i_TopModule\.accumulator\[14\]
*743 i_TopModule\.accumulator\[15\]
*744 i_TopModule\.accumulator\[16\]
*745 i_TopModule\.accumulator\[17\]
*746 i_TopModule\.accumulator\[18\]
*747 i_TopModule\.accumulator\[5\]
*748 i_TopModule\.accumulator\[6\]
*749 i_TopModule\.accumulator\[7\]
*750 i_TopModule\.accumulator\[8\]
*751 i_TopModule\.accumulator\[9\]
*752 i_TopModule\.digits_0\[0\]
*753 i_TopModule\.digits_0\[1\]
*754 i_TopModule\.digits_0\[2\]
*755 i_TopModule\.digits_0\[3\]
*756 i_TopModule\.digits_1\[0\]
*757 i_TopModule\.digits_1\[1\]
*758 i_TopModule\.digits_1\[2\]
*759 i_TopModule\.digits_1\[3\]
*760 i_TopModule\.digits_2\[0\]
*761 i_TopModule\.digits_2\[1\]
*762 i_TopModule\.digits_2\[2\]
*763 i_TopModule\.digits_2\[3\]
*764 i_TopModule\.digits_3\[0\]
*765 i_TopModule\.digits_3\[1\]
*766 i_TopModule\.digits_3\[2\]
*767 i_TopModule\.digits_3\[3\]
*768 i_TopModule\.mem_0\[2\]
*769 i_TopModule\.mem_0\[3\]
*770 i_TopModule\.mem_0\[4\]
*771 i_TopModule\.mem_10\[0\]
*772 i_TopModule\.mem_10\[1\]
*773 i_TopModule\.mem_10\[2\]
*774 i_TopModule\.mem_10\[3\]
*775 i_TopModule\.mem_10\[4\]
*776 i_TopModule\.mem_11\[0\]
*777 i_TopModule\.mem_11\[1\]
*778 i_TopModule\.mem_11\[2\]
*779 i_TopModule\.mem_11\[3\]
*780 i_TopModule\.mem_11\[4\]
*781 i_TopModule\.mem_12\[0\]
*782 i_TopModule\.mem_12\[1\]
*783 i_TopModule\.mem_12\[2\]
*784 i_TopModule\.mem_12\[3\]
*785 i_TopModule\.mem_12\[4\]
*786 i_TopModule\.mem_13\[0\]
*787 i_TopModule\.mem_13\[1\]
*788 i_TopModule\.mem_13\[2\]
*789 i_TopModule\.mem_13\[3\]
*790 i_TopModule\.mem_13\[4\]
*791 i_TopModule\.mem_14\[0\]
*792 i_TopModule\.mem_14\[1\]
*793 i_TopModule\.mem_14\[2\]
*794 i_TopModule\.mem_14\[3\]
*795 i_TopModule\.mem_14\[4\]
*796 i_TopModule\.mem_15\[0\]
*797 i_TopModule\.mem_15\[1\]
*798 i_TopModule\.mem_15\[2\]
*799 i_TopModule\.mem_15\[3\]
*800 i_TopModule\.mem_15\[4\]
*801 i_TopModule\.mem_16\[0\]
*802 i_TopModule\.mem_16\[1\]
*803 i_TopModule\.mem_16\[2\]
*804 i_TopModule\.mem_16\[3\]
*805 i_TopModule\.mem_16\[4\]
*806 i_TopModule\.mem_17\[0\]
*807 i_TopModule\.mem_17\[1\]
*808 i_TopModule\.mem_17\[2\]
*809 i_TopModule\.mem_17\[3\]
*810 i_TopModule\.mem_17\[4\]
*811 i_TopModule\.mem_18\[0\]
*812 i_TopModule\.mem_18\[1\]
*813 i_TopModule\.mem_18\[2\]
*814 i_TopModule\.mem_18\[3\]
*815 i_TopModule\.mem_18\[4\]
*816 i_TopModule\.mem_19\[0\]
*817 i_TopModule\.mem_19\[1\]
*818 i_TopModule\.mem_19\[2\]
*819 i_TopModule\.mem_19\[3\]
*820 i_TopModule\.mem_19\[4\]
*821 i_TopModule\.mem_1\[0\]
*822 i_TopModule\.mem_1\[1\]
*823 i_TopModule\.mem_1\[2\]
*824 i_TopModule\.mem_1\[3\]
*825 i_TopModule\.mem_1\[4\]
*826 i_TopModule\.mem_20\[0\]
*827 i_TopModule\.mem_20\[1\]
*828 i_TopModule\.mem_20\[2\]
*829 i_TopModule\.mem_20\[3\]
*830 i_TopModule\.mem_20\[4\]
*831 i_TopModule\.mem_21\[0\]
*832 i_TopModule\.mem_21\[1\]
*833 i_TopModule\.mem_21\[2\]
*834 i_TopModule\.mem_21\[3\]
*835 i_TopModule\.mem_21\[4\]
*836 i_TopModule\.mem_22\[0\]
*837 i_TopModule\.mem_22\[1\]
*838 i_TopModule\.mem_22\[2\]
*839 i_TopModule\.mem_22\[3\]
*840 i_TopModule\.mem_22\[4\]
*841 i_TopModule\.mem_23\[0\]
*842 i_TopModule\.mem_23\[1\]
*843 i_TopModule\.mem_23\[2\]
*844 i_TopModule\.mem_23\[3\]
*845 i_TopModule\.mem_23\[4\]
*846 i_TopModule\.mem_24\[0\]
*847 i_TopModule\.mem_24\[1\]
*848 i_TopModule\.mem_24\[2\]
*849 i_TopModule\.mem_24\[3\]
*850 i_TopModule\.mem_24\[4\]
*851 i_TopModule\.mem_25\[0\]
*852 i_TopModule\.mem_25\[1\]
*853 i_TopModule\.mem_25\[2\]
*854 i_TopModule\.mem_25\[3\]
*855 i_TopModule\.mem_25\[4\]
*856 i_TopModule\.mem_26\[0\]
*857 i_TopModule\.mem_26\[1\]
*858 i_TopModule\.mem_26\[2\]
*859 i_TopModule\.mem_26\[3\]
*860 i_TopModule\.mem_26\[4\]
*861 i_TopModule\.mem_27\[0\]
*862 i_TopModule\.mem_27\[1\]
*863 i_TopModule\.mem_27\[2\]
*864 i_TopModule\.mem_27\[3\]
*865 i_TopModule\.mem_27\[4\]
*866 i_TopModule\.mem_28\[0\]
*867 i_TopModule\.mem_28\[1\]
*868 i_TopModule\.mem_28\[2\]
*869 i_TopModule\.mem_28\[3\]
*870 i_TopModule\.mem_28\[4\]
*871 i_TopModule\.mem_29\[0\]
*872 i_TopModule\.mem_29\[1\]
*873 i_TopModule\.mem_29\[2\]
*874 i_TopModule\.mem_29\[3\]
*875 i_TopModule\.mem_29\[4\]
*876 i_TopModule\.mem_2\[0\]
*877 i_TopModule\.mem_2\[1\]
*878 i_TopModule\.mem_2\[2\]
*879 i_TopModule\.mem_2\[3\]
*880 i_TopModule\.mem_2\[4\]
*881 i_TopModule\.mem_30\[0\]
*882 i_TopModule\.mem_30\[1\]
*883 i_TopModule\.mem_30\[2\]
*884 i_TopModule\.mem_30\[3\]
*885 i_TopModule\.mem_30\[4\]
*886 i_TopModule\.mem_31\[0\]
*887 i_TopModule\.mem_31\[1\]
*888 i_TopModule\.mem_31\[2\]
*889 i_TopModule\.mem_31\[3\]
*890 i_TopModule\.mem_31\[4\]
*891 i_TopModule\.mem_3\[0\]
*892 i_TopModule\.mem_3\[1\]
*893 i_TopModule\.mem_3\[2\]
*894 i_TopModule\.mem_3\[3\]
*895 i_TopModule\.mem_3\[4\]
*896 i_TopModule\.mem_4\[0\]
*897 i_TopModule\.mem_4\[1\]
*898 i_TopModule\.mem_4\[2\]
*899 i_TopModule\.mem_4\[3\]
*900 i_TopModule\.mem_4\[4\]
*901 i_TopModule\.mem_5\[0\]
*902 i_TopModule\.mem_5\[1\]
*903 i_TopModule\.mem_5\[2\]
*904 i_TopModule\.mem_5\[3\]
*905 i_TopModule\.mem_5\[4\]
*906 i_TopModule\.mem_6\[0\]
*907 i_TopModule\.mem_6\[1\]
*908 i_TopModule\.mem_6\[2\]
*909 i_TopModule\.mem_6\[3\]
*910 i_TopModule\.mem_6\[4\]
*911 i_TopModule\.mem_7\[0\]
*912 i_TopModule\.mem_7\[1\]
*913 i_TopModule\.mem_7\[2\]
*914 i_TopModule\.mem_7\[3\]
*915 i_TopModule\.mem_7\[4\]
*916 i_TopModule\.mem_8\[0\]
*917 i_TopModule\.mem_8\[1\]
*918 i_TopModule\.mem_8\[2\]
*919 i_TopModule\.mem_8\[3\]
*920 i_TopModule\.mem_8\[4\]
*921 i_TopModule\.mem_9\[0\]
*922 i_TopModule\.mem_9\[1\]
*923 i_TopModule\.mem_9\[2\]
*924 i_TopModule\.mem_9\[3\]
*925 i_TopModule\.mem_9\[4\]
*926 i_TopModule\.outerCounter_value\[0\]
*927 i_TopModule\.outerCounter_value\[1\]
*928 i_TopModule\.outerCounter_value\[2\]
*929 i_TopModule\.outerCounter_value\[3\]
*930 i_TopModule\.outerCounter_value\[4\]
*931 i_TopModule\.slideCounter_value\[0\]
*932 i_TopModule\.slideCounter_value\[1\]
*933 i_TopModule\.slideCounter_value\[2\]
*934 i_TopModule\.slideCounter_value\[3\]
*935 net1
*936 net100
*937 net101
*938 net102
*939 net103
*940 net104
*941 net105
*942 net106
*943 net107
*944 net108
*945 net109
*946 net110
*947 net111
*948 net112
*949 net113
*950 net114
*951 net115
*952 net116
*953 net117
*954 net118
*955 net119
*956 net120
*957 net121
*958 net122
*959 net123
*960 net124
*961 net125
*962 net126
*963 net127
*964 net128
*965 net129
*966 net130
*967 net131
*968 net132
*969 net133
*970 net134
*971 net135
*972 net136
*973 net137
*974 net138
*975 net139
*976 net14
*977 net140
*978 net141
*979 net142
*980 net143
*981 net144
*982 net145
*983 net146
*984 net147
*985 net148
*986 net149
*987 net15
*988 net150
*989 net151
*990 net152
*991 net153
*992 net154
*993 net155
*994 net156
*995 net157
*996 net158
*997 net159
*998 net16
*999 net160
*1000 net161
*1001 net162
*1002 net163
*1003 net164
*1004 net165
*1005 net166
*1006 net167
*1007 net168
*1008 net169
*1009 net17
*1010 net170
*1011 net171
*1012 net172
*1013 net173
*1014 net174
*1015 net175
*1016 net176
*1017 net177
*1018 net178
*1019 net179
*1020 net18
*1021 net180
*1022 net181
*1023 net182
*1024 net183
*1025 net184
*1026 net185
*1027 net186
*1028 net187
*1029 net188
*1030 net189
*1031 net19
*1032 net190
*1033 net191
*1034 net192
*1035 net193
*1036 net194
*1037 net195
*1038 net196
*1039 net197
*1040 net198
*1041 net199
*1042 net2
*1043 net20
*1044 net200
*1045 net201
*1046 net202
*1047 net203
*1048 net204
*1049 net205
*1050 net206
*1051 net207
*1052 net208
*1053 net209
*1054 net21
*1055 net210
*1056 net211
*1057 net212
*1058 net213
*1059 net214
*1060 net215
*1061 net216
*1062 net217
*1063 net218
*1064 net219
*1065 net22
*1066 net220
*1067 net23
*1068 net24
*1069 net25
*1070 net26
*1071 net27
*1072 net28
*1073 net29
*1074 net3
*1075 net30
*1076 net31
*1077 net32
*1078 net33
*1079 net34
*1080 net35
*1081 net36
*1082 net37
*1083 net38
*1084 net39
*1085 net4
*1086 net40
*1087 net41
*1088 net42
*1089 net43
*1090 net44
*1091 net45
*1092 net46
*1093 net47
*1094 net48
*1095 net49
*1096 net5
*1097 net50
*1098 net51
*1099 net52
*1100 net53
*1101 net54
*1102 net55
*1103 net56
*1104 net57
*1105 net58
*1106 net59
*1107 net60
*1108 net61
*1109 net62
*1110 net63
*1111 net64
*1112 net65
*1113 net66
*1114 net67
*1115 net68
*1116 net69
*1117 net70
*1118 net71
*1119 net72
*1120 net73
*1121 net74
*1122 net75
*1123 net76
*1124 net77
*1125 net78
*1126 net79
*1127 net80
*1128 net81
*1129 net82
*1130 net83
*1131 net84
*1132 net85
*1133 net86
*1134 net87
*1135 net88
*1136 net89
*1137 net90
*1138 net91
*1139 net92
*1140 net93
*1141 net94
*1142 net95
*1143 net96
*1144 net97
*1145 net98
*1146 net99
*1147 FILLER_0_0_110
*1148 FILLER_0_0_131
*1149 FILLER_0_0_139
*1150 FILLER_0_0_141
*1151 FILLER_0_0_149
*1152 FILLER_0_0_15
*1153 FILLER_0_0_165
*1154 FILLER_0_0_169
*1155 FILLER_0_0_178
*1156 FILLER_0_0_187
*1157 FILLER_0_0_210
*1158 FILLER_0_0_222
*1159 FILLER_0_0_233
*1160 FILLER_0_0_241
*1161 FILLER_0_0_27
*1162 FILLER_0_0_274
*1163 FILLER_0_0_281
*1164 FILLER_0_0_287
*1165 FILLER_0_0_29
*1166 FILLER_0_0_296
*1167 FILLER_0_0_3
*1168 FILLER_0_0_309
*1169 FILLER_0_0_321
*1170 FILLER_0_0_333
*1171 FILLER_0_0_337
*1172 FILLER_0_0_349
*1173 FILLER_0_0_41
*1174 FILLER_0_0_53
*1175 FILLER_0_0_57
*1176 FILLER_0_0_69
*1177 FILLER_0_0_81
*1178 FILLER_0_0_85
*1179 FILLER_0_0_93
*1180 FILLER_0_0_99
*1181 FILLER_0_10_106
*1182 FILLER_0_10_11
*1183 FILLER_0_10_112
*1184 FILLER_0_10_122
*1185 FILLER_0_10_139
*1186 FILLER_0_10_141
*1187 FILLER_0_10_160
*1188 FILLER_0_10_194
*1189 FILLER_0_10_197
*1190 FILLER_0_10_222
*1191 FILLER_0_10_226
*1192 FILLER_0_10_235
*1193 FILLER_0_10_247
*1194 FILLER_0_10_251
*1195 FILLER_0_10_253
*1196 FILLER_0_10_259
*1197 FILLER_0_10_265
*1198 FILLER_0_10_3
*1199 FILLER_0_10_307
*1200 FILLER_0_10_309
*1201 FILLER_0_10_313
*1202 FILLER_0_10_346
*1203 FILLER_0_10_350
*1204 FILLER_0_10_37
*1205 FILLER_0_10_94
*1206 FILLER_0_11_111
*1207 FILLER_0_11_147
*1208 FILLER_0_11_165
*1209 FILLER_0_11_217
*1210 FILLER_0_11_225
*1211 FILLER_0_11_253
*1212 FILLER_0_11_261
*1213 FILLER_0_11_313
*1214 FILLER_0_11_350
*1215 FILLER_0_11_53
*1216 FILLER_0_11_57
*1217 FILLER_0_11_87
*1218 FILLER_0_11_99
*1219 FILLER_0_12_122
*1220 FILLER_0_12_141
*1221 FILLER_0_12_166
*1222 FILLER_0_12_177
*1223 FILLER_0_12_186
*1224 FILLER_0_12_234
*1225 FILLER_0_12_251
*1226 FILLER_0_12_253
*1227 FILLER_0_12_265
*1228 FILLER_0_12_269
*1229 FILLER_0_12_29
*1230 FILLER_0_12_3
*1231 FILLER_0_12_307
*1232 FILLER_0_12_317
*1233 FILLER_0_12_347
*1234 FILLER_0_12_60
*1235 FILLER_0_12_81
*1236 FILLER_0_12_89
*1237 FILLER_0_13_129
*1238 FILLER_0_13_138
*1239 FILLER_0_13_158
*1240 FILLER_0_13_167
*1241 FILLER_0_13_177
*1242 FILLER_0_13_193
*1243 FILLER_0_13_265
*1244 FILLER_0_13_277
*1245 FILLER_0_13_3
*1246 FILLER_0_13_318
*1247 FILLER_0_13_350
*1248 FILLER_0_13_44
*1249 FILLER_0_13_57
*1250 FILLER_0_14_183
*1251 FILLER_0_14_197
*1252 FILLER_0_14_214
*1253 FILLER_0_14_266
*1254 FILLER_0_14_3
*1255 FILLER_0_14_307
*1256 FILLER_0_14_317
*1257 FILLER_0_14_350
*1258 FILLER_0_14_45
*1259 FILLER_0_14_85
*1260 FILLER_0_15_109
*1261 FILLER_0_15_137
*1262 FILLER_0_15_167
*1263 FILLER_0_15_177
*1264 FILLER_0_15_186
*1265 FILLER_0_15_208
*1266 FILLER_0_15_212
*1267 FILLER_0_15_221
*1268 FILLER_0_15_225
*1269 FILLER_0_15_240
*1270 FILLER_0_15_25
*1271 FILLER_0_15_259
*1272 FILLER_0_15_289
*1273 FILLER_0_15_3
*1274 FILLER_0_15_306
*1275 FILLER_0_15_322
*1276 FILLER_0_15_332
*1277 FILLER_0_15_350
*1278 FILLER_0_15_50
*1279 FILLER_0_15_57
*1280 FILLER_0_15_80
*1281 FILLER_0_15_94
*1282 FILLER_0_16_135
*1283 FILLER_0_16_139
*1284 FILLER_0_16_178
*1285 FILLER_0_16_195
*1286 FILLER_0_16_250
*1287 FILLER_0_16_265
*1288 FILLER_0_16_29
*1289 FILLER_0_16_3
*1290 FILLER_0_16_306
*1291 FILLER_0_16_41
*1292 FILLER_0_16_64
*1293 FILLER_0_16_97
*1294 FILLER_0_17_102
*1295 FILLER_0_17_126
*1296 FILLER_0_17_15
*1297 FILLER_0_17_165
*1298 FILLER_0_17_173
*1299 FILLER_0_17_185
*1300 FILLER_0_17_220
*1301 FILLER_0_17_273
*1302 FILLER_0_17_279
*1303 FILLER_0_17_289
*1304 FILLER_0_17_3
*1305 FILLER_0_17_316
*1306 FILLER_0_17_332
*1307 FILLER_0_17_34
*1308 FILLER_0_17_345
*1309 FILLER_0_17_53
*1310 FILLER_0_17_57
*1311 FILLER_0_17_71
*1312 FILLER_0_18_138
*1313 FILLER_0_18_141
*1314 FILLER_0_18_15
*1315 FILLER_0_18_153
*1316 FILLER_0_18_165
*1317 FILLER_0_18_173
*1318 FILLER_0_18_185
*1319 FILLER_0_18_19
*1320 FILLER_0_18_221
*1321 FILLER_0_18_225
*1322 FILLER_0_18_247
*1323 FILLER_0_18_251
*1324 FILLER_0_18_274
*1325 FILLER_0_18_3
*1326 FILLER_0_18_309
*1327 FILLER_0_18_315
*1328 FILLER_0_18_346
*1329 FILLER_0_18_350
*1330 FILLER_0_18_50
*1331 FILLER_0_18_62
*1332 FILLER_0_19_100
*1333 FILLER_0_19_110
*1334 FILLER_0_19_134
*1335 FILLER_0_19_146
*1336 FILLER_0_19_15
*1337 FILLER_0_19_154
*1338 FILLER_0_19_163
*1339 FILLER_0_19_167
*1340 FILLER_0_19_169
*1341 FILLER_0_19_181
*1342 FILLER_0_19_221
*1343 FILLER_0_19_23
*1344 FILLER_0_19_233
*1345 FILLER_0_19_271
*1346 FILLER_0_19_279
*1347 FILLER_0_19_281
*1348 FILLER_0_19_3
*1349 FILLER_0_19_301
*1350 FILLER_0_19_308
*1351 FILLER_0_19_316
*1352 FILLER_0_19_337
*1353 FILLER_0_19_349
*1354 FILLER_0_19_44
*1355 FILLER_0_19_57
*1356 FILLER_0_19_69
*1357 FILLER_0_19_75
*1358 FILLER_0_1_134
*1359 FILLER_0_1_15
*1360 FILLER_0_1_152
*1361 FILLER_0_1_166
*1362 FILLER_0_1_169
*1363 FILLER_0_1_194
*1364 FILLER_0_1_221
*1365 FILLER_0_1_262
*1366 FILLER_0_1_27
*1367 FILLER_0_1_297
*1368 FILLER_0_1_3
*1369 FILLER_0_1_323
*1370 FILLER_0_1_335
*1371 FILLER_0_1_337
*1372 FILLER_0_1_349
*1373 FILLER_0_1_39
*1374 FILLER_0_1_57
*1375 FILLER_0_1_69
*1376 FILLER_0_20_125
*1377 FILLER_0_20_133
*1378 FILLER_0_20_139
*1379 FILLER_0_20_149
*1380 FILLER_0_20_15
*1381 FILLER_0_20_171
*1382 FILLER_0_20_192
*1383 FILLER_0_20_233
*1384 FILLER_0_20_245
*1385 FILLER_0_20_269
*1386 FILLER_0_20_27
*1387 FILLER_0_20_281
*1388 FILLER_0_20_285
*1389 FILLER_0_20_29
*1390 FILLER_0_20_3
*1391 FILLER_0_20_305
*1392 FILLER_0_20_327
*1393 FILLER_0_20_339
*1394 FILLER_0_20_41
*1395 FILLER_0_20_53
*1396 FILLER_0_20_65
*1397 FILLER_0_20_77
*1398 FILLER_0_20_85
*1399 FILLER_0_20_99
*1400 FILLER_0_21_106
*1401 FILLER_0_21_113
*1402 FILLER_0_21_125
*1403 FILLER_0_21_144
*1404 FILLER_0_21_15
*1405 FILLER_0_21_166
*1406 FILLER_0_21_181
*1407 FILLER_0_21_189
*1408 FILLER_0_21_220
*1409 FILLER_0_21_230
*1410 FILLER_0_21_240
*1411 FILLER_0_21_256
*1412 FILLER_0_21_276
*1413 FILLER_0_21_294
*1414 FILLER_0_21_3
*1415 FILLER_0_21_337
*1416 FILLER_0_21_34
*1417 FILLER_0_21_349
*1418 FILLER_0_21_38
*1419 FILLER_0_21_42
*1420 FILLER_0_21_53
*1421 FILLER_0_21_57
*1422 FILLER_0_21_63
*1423 FILLER_0_21_77
*1424 FILLER_0_21_94
*1425 FILLER_0_22_109
*1426 FILLER_0_22_121
*1427 FILLER_0_22_164
*1428 FILLER_0_22_187
*1429 FILLER_0_22_195
*1430 FILLER_0_22_201
*1431 FILLER_0_22_216
*1432 FILLER_0_22_224
*1433 FILLER_0_22_236
*1434 FILLER_0_22_245
*1435 FILLER_0_22_251
*1436 FILLER_0_22_253
*1437 FILLER_0_22_273
*1438 FILLER_0_22_281
*1439 FILLER_0_22_293
*1440 FILLER_0_22_3
*1441 FILLER_0_22_305
*1442 FILLER_0_22_309
*1443 FILLER_0_22_317
*1444 FILLER_0_22_321
*1445 FILLER_0_22_325
*1446 FILLER_0_22_329
*1447 FILLER_0_22_346
*1448 FILLER_0_22_350
*1449 FILLER_0_22_82
*1450 FILLER_0_23_11
*1451 FILLER_0_23_111
*1452 FILLER_0_23_113
*1453 FILLER_0_23_125
*1454 FILLER_0_23_165
*1455 FILLER_0_23_169
*1456 FILLER_0_23_183
*1457 FILLER_0_23_195
*1458 FILLER_0_23_215
*1459 FILLER_0_23_223
*1460 FILLER_0_23_225
*1461 FILLER_0_23_237
*1462 FILLER_0_23_249
*1463 FILLER_0_23_261
*1464 FILLER_0_23_273
*1465 FILLER_0_23_279
*1466 FILLER_0_23_281
*1467 FILLER_0_23_3
*1468 FILLER_0_23_300
*1469 FILLER_0_23_312
*1470 FILLER_0_23_324
*1471 FILLER_0_23_345
*1472 FILLER_0_23_39
*1473 FILLER_0_23_45
*1474 FILLER_0_23_53
*1475 FILLER_0_23_57
*1476 FILLER_0_23_61
*1477 FILLER_0_23_67
*1478 FILLER_0_23_89
*1479 FILLER_0_24_104
*1480 FILLER_0_24_109
*1481 FILLER_0_24_11
*1482 FILLER_0_24_117
*1483 FILLER_0_24_124
*1484 FILLER_0_24_149
*1485 FILLER_0_24_159
*1486 FILLER_0_24_165
*1487 FILLER_0_24_175
*1488 FILLER_0_24_187
*1489 FILLER_0_24_195
*1490 FILLER_0_24_197
*1491 FILLER_0_24_228
*1492 FILLER_0_24_240
*1493 FILLER_0_24_259
*1494 FILLER_0_24_271
*1495 FILLER_0_24_280
*1496 FILLER_0_24_3
*1497 FILLER_0_24_304
*1498 FILLER_0_24_314
*1499 FILLER_0_24_349
*1500 FILLER_0_24_37
*1501 FILLER_0_24_49
*1502 FILLER_0_24_55
*1503 FILLER_0_24_65
*1504 FILLER_0_24_72
*1505 FILLER_0_24_85
*1506 FILLER_0_24_97
*1507 FILLER_0_25_11
*1508 FILLER_0_25_130
*1509 FILLER_0_25_141
*1510 FILLER_0_25_164
*1511 FILLER_0_25_178
*1512 FILLER_0_25_189
*1513 FILLER_0_25_231
*1514 FILLER_0_25_269
*1515 FILLER_0_25_3
*1516 FILLER_0_25_303
*1517 FILLER_0_25_309
*1518 FILLER_0_25_315
*1519 FILLER_0_25_345
*1520 FILLER_0_25_46
*1521 FILLER_0_25_54
*1522 FILLER_0_25_57
*1523 FILLER_0_25_74
*1524 FILLER_0_25_86
*1525 FILLER_0_25_98
*1526 FILLER_0_26_123
*1527 FILLER_0_26_135
*1528 FILLER_0_26_139
*1529 FILLER_0_26_149
*1530 FILLER_0_26_161
*1531 FILLER_0_26_183
*1532 FILLER_0_26_190
*1533 FILLER_0_26_223
*1534 FILLER_0_26_235
*1535 FILLER_0_26_243
*1536 FILLER_0_26_258
*1537 FILLER_0_26_269
*1538 FILLER_0_26_278
*1539 FILLER_0_26_285
*1540 FILLER_0_26_297
*1541 FILLER_0_26_3
*1542 FILLER_0_26_307
*1543 FILLER_0_26_309
*1544 FILLER_0_26_315
*1545 FILLER_0_26_335
*1546 FILLER_0_26_347
*1547 FILLER_0_26_43
*1548 FILLER_0_26_51
*1549 FILLER_0_26_82
*1550 FILLER_0_26_85
*1551 FILLER_0_27_11
*1552 FILLER_0_27_111
*1553 FILLER_0_27_118
*1554 FILLER_0_27_124
*1555 FILLER_0_27_166
*1556 FILLER_0_27_215
*1557 FILLER_0_27_233
*1558 FILLER_0_27_245
*1559 FILLER_0_27_257
*1560 FILLER_0_27_265
*1561 FILLER_0_27_284
*1562 FILLER_0_27_296
*1563 FILLER_0_27_3
*1564 FILLER_0_27_308
*1565 FILLER_0_27_341
*1566 FILLER_0_27_345
*1567 FILLER_0_27_40
*1568 FILLER_0_27_52
*1569 FILLER_0_28_110
*1570 FILLER_0_28_122
*1571 FILLER_0_28_15
*1572 FILLER_0_28_164
*1573 FILLER_0_28_170
*1574 FILLER_0_28_174
*1575 FILLER_0_28_193
*1576 FILLER_0_28_197
*1577 FILLER_0_28_203
*1578 FILLER_0_28_232
*1579 FILLER_0_28_244
*1580 FILLER_0_28_253
*1581 FILLER_0_28_257
*1582 FILLER_0_28_26
*1583 FILLER_0_28_29
*1584 FILLER_0_28_293
*1585 FILLER_0_28_3
*1586 FILLER_0_28_305
*1587 FILLER_0_28_309
*1588 FILLER_0_28_321
*1589 FILLER_0_28_325
*1590 FILLER_0_28_350
*1591 FILLER_0_28_41
*1592 FILLER_0_28_53
*1593 FILLER_0_28_61
*1594 FILLER_0_28_82
*1595 FILLER_0_28_85
*1596 FILLER_0_28_93
*1597 FILLER_0_28_97
*1598 FILLER_0_29_102
*1599 FILLER_0_29_110
*1600 FILLER_0_29_113
*1601 FILLER_0_29_125
*1602 FILLER_0_29_133
*1603 FILLER_0_29_15
*1604 FILLER_0_29_163
*1605 FILLER_0_29_167
*1606 FILLER_0_29_169
*1607 FILLER_0_29_175
*1608 FILLER_0_29_204
*1609 FILLER_0_29_210
*1610 FILLER_0_29_215
*1611 FILLER_0_29_225
*1612 FILLER_0_29_243
*1613 FILLER_0_29_247
*1614 FILLER_0_29_279
*1615 FILLER_0_29_3
*1616 FILLER_0_29_328
*1617 FILLER_0_29_337
*1618 FILLER_0_29_349
*1619 FILLER_0_29_43
*1620 FILLER_0_29_55
*1621 FILLER_0_29_57
*1622 FILLER_0_29_78
*1623 FILLER_0_29_90
*1624 FILLER_0_2_101
*1625 FILLER_0_2_118
*1626 FILLER_0_2_15
*1627 FILLER_0_2_157
*1628 FILLER_0_2_176
*1629 FILLER_0_2_197
*1630 FILLER_0_2_232
*1631 FILLER_0_2_253
*1632 FILLER_0_2_27
*1633 FILLER_0_2_29
*1634 FILLER_0_2_291
*1635 FILLER_0_2_3
*1636 FILLER_0_2_330
*1637 FILLER_0_2_342
*1638 FILLER_0_2_350
*1639 FILLER_0_2_37
*1640 FILLER_0_2_62
*1641 FILLER_0_30_101
*1642 FILLER_0_30_108
*1643 FILLER_0_30_11
*1644 FILLER_0_30_115
*1645 FILLER_0_30_135
*1646 FILLER_0_30_139
*1647 FILLER_0_30_165
*1648 FILLER_0_30_195
*1649 FILLER_0_30_216
*1650 FILLER_0_30_224
*1651 FILLER_0_30_232
*1652 FILLER_0_30_244
*1653 FILLER_0_30_253
*1654 FILLER_0_30_257
*1655 FILLER_0_30_29
*1656 FILLER_0_30_290
*1657 FILLER_0_30_3
*1658 FILLER_0_30_302
*1659 FILLER_0_30_309
*1660 FILLER_0_30_328
*1661 FILLER_0_30_346
*1662 FILLER_0_30_350
*1663 FILLER_0_30_52
*1664 FILLER_0_30_56
*1665 FILLER_0_30_88
*1666 FILLER_0_30_96
*1667 FILLER_0_31_138
*1668 FILLER_0_31_146
*1669 FILLER_0_31_164
*1670 FILLER_0_31_169
*1671 FILLER_0_31_181
*1672 FILLER_0_31_212
*1673 FILLER_0_31_225
*1674 FILLER_0_31_250
*1675 FILLER_0_31_262
*1676 FILLER_0_31_281
*1677 FILLER_0_31_293
*1678 FILLER_0_31_3
*1679 FILLER_0_31_334
*1680 FILLER_0_31_337
*1681 FILLER_0_31_341
*1682 FILLER_0_31_345
*1683 FILLER_0_31_50
*1684 FILLER_0_31_91
*1685 FILLER_0_31_95
*1686 FILLER_0_32_100
*1687 FILLER_0_32_11
*1688 FILLER_0_32_114
*1689 FILLER_0_32_125
*1690 FILLER_0_32_132