*SPEF "ieee 1481-1999"
*DESIGN "tt_um_diadatp_spigot_e"
*DATE "11:11:11 Fri 11 11, 1111"
*VENDOR "OpenRCX"
*PROGRAM "Parallel Extraction"
*VERSION "1.0"
*DESIGN_FLOW "NAME_SCOPE LOCAL" "PIN_CAP NONE"
*DIVIDER /
*DELIMITER :
*BUS_DELIMITER []
*T_UNIT 1 NS
*C_UNIT 1 PF
*R_UNIT 1 OHM
*L_UNIT 1 HENRY

*NAME_MAP
*3 clk
*4 ena
*5 rst_n
*6 ui_in[0]
*7 ui_in[1]
*8 ui_in[2]
*9 ui_in[3]
*10 ui_in[4]
*11 ui_in[5]
*12 ui_in[6]
*13 ui_in[7]
*14 uio_in[0]
*15 uio_in[1]
*16 uio_in[2]
*17 uio_in[3]
*18 uio_in[4]
*19 uio_in[5]
*20 uio_in[6]
*21 uio_in[7]
*22 net8
*23 net9
*24 net10
*25 net11
*26 net12
*27 net13
*28 net14
*29 net15
*30 uio_out[0]
*31 uio_out[1]
*32 uio_out[2]
*33 uio_out[3]
*34 uio_out[4]
*35 uio_out[5]
*36 uio_out[6]
*37 uio_out[7]
*38 uo_out[0]
*39 uo_out[1]
*40 uo_out[2]
*41 uo_out[3]
*42 uo_out[4]
*43 uo_out[5]
*44 uo_out[6]
*45 uo_out[7]
*46 _0000_
*47 _0001_
*48 _0002_
*49 _0003_
*50 _0004_
*51 _0005_
*52 _0006_
*53 _0007_
*54 _0008_
*55 _0009_
*56 _0010_
*57 _0011_
*58 _0012_
*59 _0013_
*60 _0014_
*61 _0015_
*62 _0016_
*63 _0017_
*64 _0018_
*65 _0019_
*66 _0020_
*67 _0021_
*68 _0022_
*69 _0023_
*70 _0024_
*71 _0025_
*72 _0026_
*73 _0027_
*74 _0028_
*75 _0029_
*76 _0030_
*77 _0031_
*78 _0032_
*79 _0033_
*80 _0034_
*81 _0035_
*82 _0036_
*83 _0037_
*84 _0038_
*85 _0039_
*86 _0040_
*87 _0041_
*88 _0042_
*89 _0043_
*90 _0044_
*91 _0045_
*92 _0046_
*93 _0047_
*94 _0048_
*95 _0049_
*96 _0050_
*97 _0051_
*98 _0052_
*99 _0053_
*100 _0054_
*101 _0055_
*102 _0056_
*103 _0057_
*104 _0058_
*105 _0059_
*106 _0060_
*107 _0061_
*108 _0062_
*109 _0063_
*110 _0064_
*111 _0065_
*112 _0066_
*113 _0067_
*114 _0068_
*115 _0069_
*116 _0070_
*117 _0071_
*118 _0072_
*119 _0073_
*120 _0074_
*121 _0075_
*122 _0076_
*123 _0077_
*124 _0078_
*125 _0079_
*126 _0080_
*127 _0081_
*128 _0082_
*129 _0083_
*130 _0084_
*131 _0085_
*132 _0086_
*133 _0087_
*134 _0088_
*135 _0089_
*136 _0090_
*137 _0091_
*138 _0092_
*139 _0093_
*140 _0094_
*141 _0095_
*142 _0096_
*143 _0097_
*144 _0098_
*145 _0099_
*146 _0100_
*147 _0101_
*148 _0102_
*149 _0103_
*150 _0104_
*151 _0105_
*152 _0106_
*153 _0107_
*154 _0108_
*155 _0109_
*156 _0110_
*157 _0111_
*158 _0112_
*159 _0113_
*160 _0114_
*161 _0115_
*162 _0116_
*163 _0117_
*164 _0118_
*165 _0119_
*166 _0120_
*167 _0121_
*168 _0122_
*169 _0123_
*170 _0124_
*171 _0125_
*172 _0126_
*173 _0127_
*174 _0128_
*175 _0129_
*176 _0130_
*177 _0131_
*178 _0132_
*179 _0133_
*180 _0134_
*181 _0135_
*182 _0136_
*183 _0137_
*184 _0138_
*185 _0139_
*186 _0140_
*187 _0141_
*188 _0142_
*189 _0143_
*190 _0144_
*191 _0145_
*192 _0146_
*193 _0147_
*194 _0148_
*195 _0149_
*196 _0150_
*197 _0151_
*198 _0152_
*199 _0153_
*200 _0154_
*201 _0155_
*202 _0156_
*203 _0157_
*204 _0158_
*205 _0159_
*206 _0160_
*207 _0161_
*208 _0162_
*209 _0163_
*210 _0164_
*211 _0165_
*212 _0166_
*213 _0167_
*214 _0168_
*215 _0169_
*216 _0170_
*217 _0171_
*218 _0172_
*219 _0173_
*220 _0174_
*221 _0175_
*222 _0176_
*223 _0177_
*224 _0178_
*225 _0179_
*226 _0180_
*227 _0181_
*228 _0182_
*229 _0183_
*230 _0184_
*231 _0185_
*232 _0186_
*233 _0187_
*234 _0188_
*235 _0189_
*236 _0190_
*237 _0191_
*238 _0192_
*239 _0193_
*240 _0194_
*241 _0195_
*242 _0196_
*243 _0197_
*244 _0198_
*245 _0199_
*246 _0200_
*247 _0201_
*248 _0202_
*249 _0203_
*250 _0204_
*251 _0205_
*252 _0206_
*253 _0207_
*254 _0208_
*255 _0209_
*256 _0210_
*257 _0211_
*258 _0212_
*259 _0213_
*260 _0214_
*261 _0215_
*262 _0216_
*263 _0217_
*264 _0218_
*265 _0219_
*266 _0220_
*267 _0221_
*268 _0222_
*269 _0223_
*270 _0224_
*271 _0225_
*272 _0226_
*273 _0227_
*274 _0228_
*275 _0229_
*276 _0230_
*277 _0231_
*278 _0232_
*279 _0233_
*280 _0234_
*281 _0235_
*282 _0236_
*283 _0237_
*284 _0238_
*285 _0239_
*286 _0240_
*287 _0241_
*288 _0242_
*289 _0243_
*290 _0244_
*291 _0245_
*292 _0246_
*293 _0247_
*294 _0248_
*295 _0249_
*296 _0250_
*297 _0251_
*298 _0252_
*299 _0253_
*300 _0254_
*301 _0255_
*302 _0256_
*303 _0257_
*304 _0258_
*305 _0259_
*306 _0260_
*307 _0261_
*308 _0262_
*309 _0263_
*310 _0264_
*311 _0265_
*312 _0266_
*313 _0267_
*314 _0268_
*315 _0269_
*316 _0270_
*317 _0271_
*318 _0272_
*319 _0273_
*320 _0274_
*321 _0275_
*322 _0276_
*323 _0277_
*324 _0278_
*325 _0279_
*326 _0280_
*327 _0281_
*328 _0282_
*329 _0283_
*330 _0284_
*331 _0285_
*332 _0286_
*333 _0287_
*334 _0288_
*335 _0289_
*336 _0290_
*337 _0291_
*338 _0292_
*339 _0293_
*340 _0294_
*341 _0295_
*342 _0296_
*343 _0297_
*344 _0298_
*345 _0299_
*346 _0300_
*347 _0301_
*348 _0302_
*349 _0303_
*350 _0304_
*351 _0305_
*352 _0306_
*353 _0307_
*354 _0308_
*355 _0309_
*356 _0310_
*357 _0311_
*358 _0312_
*359 _0313_
*360 _0314_
*361 _0315_
*362 _0316_
*363 _0317_
*364 _0318_
*365 _0319_
*366 _0320_
*367 _0321_
*368 _0322_
*369 _0323_
*370 _0324_
*371 _0325_
*372 _0326_
*373 _0327_
*374 _0328_
*375 _0329_
*376 _0330_
*377 _0331_
*378 _0332_
*379 _0333_
*380 _0334_
*381 _0335_
*382 _0336_
*383 _0337_
*384 _0338_
*385 _0339_
*386 _0340_
*387 _0341_
*388 _0342_
*389 _0343_
*390 _0344_
*391 _0345_
*392 _0346_
*393 _0347_
*394 _0348_
*395 _0349_
*396 _0350_
*397 _0351_
*398 _0352_
*399 _0353_
*400 _0354_
*401 _0355_
*402 _0356_
*403 _0357_
*404 _0358_
*405 _0359_
*406 _0360_
*407 _0361_
*408 _0362_
*409 _0363_
*410 _0364_
*411 _0365_
*412 _0366_
*413 _0367_
*414 _0368_
*415 _0369_
*416 _0370_
*417 _0371_
*418 _0372_
*419 _0373_
*420 _0374_
*421 _0375_
*422 _0376_
*423 _0377_
*424 _0378_
*425 _0379_
*426 _0380_
*427 _0381_
*428 _0382_
*429 _0383_
*430 _0384_
*431 _0385_
*432 _0386_
*433 _0387_
*434 _0388_
*435 _0389_
*436 _0390_
*437 _0391_
*438 _0392_
*439 _0393_
*440 _0394_
*441 _0395_
*442 _0396_
*443 _0397_
*444 _0398_
*445 _0399_
*446 _0400_
*447 _0401_
*448 _0402_
*449 _0403_
*450 _0404_
*451 _0405_
*452 _0406_
*453 _0407_
*454 _0408_
*455 _0409_
*456 _0410_
*457 _0411_
*458 _0412_
*459 _0413_
*460 _0414_
*461 _0415_
*462 _0416_
*463 _0417_
*464 _0418_
*465 _0419_
*466 _0420_
*467 _0421_
*468 _0422_
*469 _0423_
*470 _0424_
*471 _0425_
*472 _0426_
*473 _0427_
*474 _0428_
*475 _0429_
*476 _0430_
*477 _0431_
*478 _0432_
*479 _0433_
*480 _0434_
*481 _0435_
*482 _0436_
*483 _0437_
*484 _0438_
*485 _0439_
*486 _0440_
*487 _0441_
*488 _0442_
*489 _0443_
*490 _0444_
*491 _0445_
*492 _0446_
*493 _0447_
*494 _0448_
*495 _0449_
*496 _0450_
*497 _0451_
*498 _0452_
*499 _0453_
*500 _0454_
*501 _0455_
*502 _0456_
*503 _0457_
*504 _0458_
*505 _0459_
*506 _0460_
*507 _0461_
*508 _0462_
*509 _0463_
*510 _0464_
*511 _0465_
*512 _0466_
*513 _0467_
*514 _0468_
*515 _0469_
*516 _0470_
*517 _0471_
*518 _0472_
*519 _0473_
*520 _0474_
*521 _0475_
*522 _0476_
*523 _0477_
*524 _0478_
*525 _0479_
*526 _0480_
*527 _0481_
*528 _0482_
*529 _0483_
*530 _0484_
*531 _0485_
*532 _0486_
*533 _0487_
*534 _0488_
*535 _0489_
*536 _0490_
*537 _0491_
*538 _0492_
*539 _0493_
*540 _0494_
*541 _0495_
*542 _0496_
*543 _0497_
*544 _0498_
*545 _0499_
*546 _0500_
*547 _0501_
*548 _0502_
*549 _0503_
*550 _0504_
*551 _0505_
*552 _0506_
*553 _0507_
*554 _0508_
*555 _0509_
*556 _0510_
*557 _0511_
*558 _0512_
*559 _0513_
*560 _0514_
*561 _0515_
*562 _0516_
*563 _0517_
*564 _0518_
*565 _0519_
*566 _0520_
*567 _0521_
*568 _0522_
*569 _0523_
*570 _0524_
*571 _0525_
*572 _0526_
*573 _0527_
*574 _0528_
*575 _0529_
*576 _0530_
*577 _0531_
*578 _0532_
*579 _0533_
*580 _0534_
*581 _0535_
*582 _0536_
*583 _0537_
*584 _0538_
*585 _0539_
*586 _0540_
*587 _0541_
*588 _0542_
*589 _0543_
*590 _0544_
*591 _0545_
*592 _0546_
*593 _0547_
*594 _0548_
*595 _0549_
*596 _0550_
*597 _0551_
*598 _0552_
*599 _0553_
*600 _0554_
*601 _0555_
*602 _0556_
*603 _0557_
*604 _0558_
*605 _0559_
*606 _0560_
*607 _0561_
*608 _0562_
*609 _0563_
*610 _0564_
*611 _0565_
*612 _0566_
*613 _0567_
*614 _0568_
*615 _0569_
*616 _0570_
*617 _0571_
*618 _0572_
*619 _0573_
*620 _0574_
*621 _0575_
*622 _0576_
*623 _0577_
*624 _0578_
*625 _0579_
*626 _0580_
*627 _0581_
*628 _0582_
*629 _0583_
*630 _0584_
*631 _0585_
*632 _0586_
*633 _0587_
*634 _0588_
*635 _0589_
*636 _0590_
*637 _0591_
*638 _0592_
*639 _0593_
*640 _0594_
*641 _0595_
*642 _0596_
*643 _0597_
*644 _0598_
*645 _0599_
*646 _0600_
*647 _0601_
*648 _0602_
*649 _0603_
*650 _0604_
*651 _0605_
*652 _0606_
*653 _0607_
*654 _0608_
*655 _0609_
*656 _0610_
*657 _0611_
*658 _0612_
*659 _0613_
*660 _0614_
*661 _0615_
*662 _0616_
*663 _0617_
*664 _0618_
*665 _0619_
*666 _0620_
*667 _0621_
*668 _0622_
*669 _0623_
*670 _0624_
*671 _0625_
*672 _0626_
*673 _0627_
*674 _0628_
*675 _0629_
*676 _0630_
*677 _0631_
*678 _0632_
*679 _0633_
*680 _0634_
*681 _0635_
*682 _0636_
*683 _0637_
*684 _0638_
*685 _0639_
*686 _0640_
*687 _0641_
*688 _0642_
*689 _0643_
*690 _0644_
*691 _0645_
*692 _0646_
*693 _0647_
*694 _0648_
*695 _0649_
*696 _0650_
*697 _0651_
*698 _0652_
*699 _0653_
*700 _0654_
*701 _0655_
*702 _0656_
*703 clknet_0_clk
*704 clknet_1_0__leaf_clk
*705 clknet_1_1__leaf_clk
*706 clknet_leaf_0_clk
*707 clknet_leaf_10_clk
*708 clknet_leaf_11_clk
*709 clknet_leaf_1_clk
*710 clknet_leaf_2_clk
*711 clknet_leaf_3_clk
*712 clknet_leaf_4_clk
*713 clknet_leaf_5_clk
*714 clknet_leaf_6_clk
*715 clknet_leaf_7_clk
*716 clknet_leaf_8_clk
*717 clknet_leaf_9_clk
*718 i_TopModule\._zz_accumulator\[1\]
*719 i_TopModule\._zz_accumulator\[2\]
*720 i_TopModule\._zz_accumulator_1\[0\]
*721 i_TopModule\._zz_accumulator_3\[1\]
*722 i_TopModule\._zz_accumulator_3\[2\]
*723 i_TopModule\._zz_accumulator_3\[3\]
*724 i_TopModule\._zz_accumulator_3\[4\]
*725 i_TopModule\._zz_diff\[0\]
*726 i_TopModule\._zz_diff\[1\]
*727 i_TopModule\._zz_diff\[2\]
*728 i_TopModule\._zz_diff\[3\]
*729 i_TopModule\._zz_diff\[4\]
*730 i_TopModule\._zz_diff\[5\]
*731 i_TopModule\.accumulator\[10\]
*732 i_TopModule\.accumulator\[11\]
*733 i_TopModule\.accumulator\[12\]
*734 i_TopModule\.accumulator\[13\]
*735 i_TopModule\.accumulator\[14\]
*736 i_TopModule\.accumulator\[15\]
*737 i_TopModule\.accumulator\[16\]
*738 i_TopModule\.accumulator\[17\]
*739 i_TopModule\.accumulator\[18\]
*740 i_TopModule\.accumulator\[5\]
*741 i_TopModule\.accumulator\[6\]
*742 i_TopModule\.accumulator\[7\]
*743 i_TopModule\.accumulator\[8\]
*744 i_TopModule\.accumulator\[9\]
*745 i_TopModule\.digits_0\[0\]
*746 i_TopModule\.digits_0\[1\]
*747 i_TopModule\.digits_0\[2\]
*748 i_TopModule\.digits_0\[3\]
*749 i_TopModule\.digits_1\[0\]
*750 i_TopModule\.digits_1\[1\]
*751 i_TopModule\.digits_1\[2\]
*752 i_TopModule\.digits_1\[3\]
*753 i_TopModule\.digits_2\[0\]
*754 i_TopModule\.digits_2\[1\]
*755 i_TopModule\.digits_2\[2\]
*756 i_TopModule\.digits_2\[3\]
*757 i_TopModule\.digits_3\[0\]
*758 i_TopModule\.digits_3\[1\]
*759 i_TopModule\.digits_3\[2\]
*760 i_TopModule\.digits_3\[3\]
*761 i_TopModule\.mem_0\[2\]
*762 i_TopModule\.mem_0\[3\]
*763 i_TopModule\.mem_0\[4\]
*764 i_TopModule\.mem_10\[0\]
*765 i_TopModule\.mem_10\[1\]
*766 i_TopModule\.mem_10\[2\]
*767 i_TopModule\.mem_10\[3\]
*768 i_TopModule\.mem_10\[4\]
*769 i_TopModule\.mem_11\[0\]
*770 i_TopModule\.mem_11\[1\]
*771 i_TopModule\.mem_11\[2\]
*772 i_TopModule\.mem_11\[3\]
*773 i_TopModule\.mem_11\[4\]
*774 i_TopModule\.mem_12\[0\]
*775 i_TopModule\.mem_12\[1\]
*776 i_TopModule\.mem_12\[2\]
*777 i_TopModule\.mem_12\[3\]
*778 i_TopModule\.mem_12\[4\]
*779 i_TopModule\.mem_13\[0\]
*780 i_TopModule\.mem_13\[1\]
*781 i_TopModule\.mem_13\[2\]
*782 i_TopModule\.mem_13\[3\]
*783 i_TopModule\.mem_13\[4\]
*784 i_TopModule\.mem_14\[0\]
*785 i_TopModule\.mem_14\[1\]
*786 i_TopModule\.mem_14\[2\]
*787 i_TopModule\.mem_14\[3\]
*788 i_TopModule\.mem_14\[4\]
*789 i_TopModule\.mem_15\[0\]
*790 i_TopModule\.mem_15\[1\]
*791 i_TopModule\.mem_15\[2\]
*792 i_TopModule\.mem_15\[3\]
*793 i_TopModule\.mem_15\[4\]
*794 i_TopModule\.mem_16\[0\]
*795 i_TopModule\.mem_16\[1\]
*796 i_TopModule\.mem_16\[2\]
*797 i_TopModule\.mem_16\[3\]
*798 i_TopModule\.mem_16\[4\]
*799 i_TopModule\.mem_17\[0\]
*800 i_TopModule\.mem_17\[1\]
*801 i_TopModule\.mem_17\[2\]
*802 i_TopModule\.mem_17\[3\]
*803 i_TopModule\.mem_17\[4\]
*804 i_TopModule\.mem_18\[0\]
*805 i_TopModule\.mem_18\[1\]
*806 i_TopModule\.mem_18\[2\]
*807 i_TopModule\.mem_18\[3\]
*808 i_TopModule\.mem_18\[4\]
*809 i_TopModule\.mem_19\[0\]
*810 i_TopModule\.mem_19\[1\]
*811 i_TopModule\.mem_19\[2\]
*812 i_TopModule\.mem_19\[3\]
*813 i_TopModule\.mem_19\[4\]
*814 i_TopModule\.mem_1\[0\]
*815 i_TopModule\.mem_1\[1\]
*816 i_TopModule\.mem_1\[2\]
*817 i_TopModule\.mem_1\[3\]
*818 i_TopModule\.mem_1\[4\]
*819 i_TopModule\.mem_20\[0\]
*820 i_TopModule\.mem_20\[1\]
*821 i_TopModule\.mem_20\[2\]
*822 i_TopModule\.mem_20\[3\]
*823 i_TopModule\.mem_20\[4\]
*824 i_TopModule\.mem_21\[0\]
*825 i_TopModule\.mem_21\[1\]
*826 i_TopModule\.mem_21\[2\]
*827 i_TopModule\.mem_21\[3\]
*828 i_TopModule\.mem_21\[4\]
*829 i_TopModule\.mem_22\[0\]
*830 i_TopModule\.mem_22\[1\]
*831 i_TopModule\.mem_22\[2\]
*832 i_TopModule\.mem_22\[3\]
*833 i_TopModule\.mem_22\[4\]
*834 i_TopModule\.mem_23\[0\]
*835 i_TopModule\.mem_23\[1\]
*836 i_TopModule\.mem_23\[2\]
*837 i_TopModule\.mem_23\[3\]
*838 i_TopModule\.mem_23\[4\]
*839 i_TopModule\.mem_24\[0\]
*840 i_TopModule\.mem_24\[1\]
*841 i_TopModule\.mem_24\[2\]
*842 i_TopModule\.mem_24\[3\]
*843 i_TopModule\.mem_24\[4\]
*844 i_TopModule\.mem_25\[0\]
*845 i_TopModule\.mem_25\[1\]
*846 i_TopModule\.mem_25\[2\]
*847 i_TopModule\.mem_25\[3\]
*848 i_TopModule\.mem_25\[4\]
*849 i_TopModule\.mem_26\[0\]
*850 i_TopModule\.mem_26\[1\]
*851 i_TopModule\.mem_26\[2\]
*852 i_TopModule\.mem_26\[3\]
*853 i_TopModule\.mem_26\[4\]
*854 i_TopModule\.mem_27\[0\]
*855 i_TopModule\.mem_27\[1\]
*856 i_TopModule\.mem_27\[2\]
*857 i_TopModule\.mem_27\[3\]
*858 i_TopModule\.mem_27\[4\]
*859 i_TopModule\.mem_28\[0\]
*860 i_TopModule\.mem_28\[1\]
*861 i_TopModule\.mem_28\[2\]
*862 i_TopModule\.mem_28\[3\]
*863 i_TopModule\.mem_28\[4\]
*864 i_TopModule\.mem_29\[0\]
*865 i_TopModule\.mem_29\[1\]
*866 i_TopModule\.mem_29\[2\]
*867 i_TopModule\.mem_29\[3\]
*868 i_TopModule\.mem_29\[4\]
*869 i_TopModule\.mem_2\[0\]
*870 i_TopModule\.mem_2\[1\]
*871 i_TopModule\.mem_2\[2\]
*872 i_TopModule\.mem_2\[3\]
*873 i_TopModule\.mem_2\[4\]
*874 i_TopModule\.mem_30\[0\]
*875 i_TopModule\.mem_30\[1\]
*876 i_TopModule\.mem_30\[2\]
*877 i_TopModule\.mem_30\[3\]
*878 i_TopModule\.mem_30\[4\]
*879 i_TopModule\.mem_31\[0\]
*880 i_TopModule\.mem_31\[1\]
*881 i_TopModule\.mem_31\[2\]
*882 i_TopModule\.mem_31\[3\]
*883 i_TopModule\.mem_31\[4\]
*884 i_TopModule\.mem_3\[0\]
*885 i_TopModule\.mem_3\[1\]
*886 i_TopModule\.mem_3\[2\]
*887 i_TopModule\.mem_3\[3\]
*888 i_TopModule\.mem_3\[4\]
*889 i_TopModule\.mem_4\[0\]
*890 i_TopModule\.mem_4\[1\]
*891 i_TopModule\.mem_4\[2\]
*892 i_TopModule\.mem_4\[3\]
*893 i_TopModule\.mem_4\[4\]
*894 i_TopModule\.mem_5\[0\]
*895 i_TopModule\.mem_5\[1\]
*896 i_TopModule\.mem_5\[2\]
*897 i_TopModule\.mem_5\[3\]
*898 i_TopModule\.mem_5\[4\]
*899 i_TopModule\.mem_6\[0\]
*900 i_TopModule\.mem_6\[1\]
*901 i_TopModule\.mem_6\[2\]
*902 i_TopModule\.mem_6\[3\]
*903 i_TopModule\.mem_6\[4\]
*904 i_TopModule\.mem_7\[0\]
*905 i_TopModule\.mem_7\[1\]
*906 i_TopModule\.mem_7\[2\]
*907 i_TopModule\.mem_7\[3\]
*908 i_TopModule\.mem_7\[4\]
*909 i_TopModule\.mem_8\[0\]
*910 i_TopModule\.mem_8\[1\]
*911 i_TopModule\.mem_8\[2\]
*912 i_TopModule\.mem_8\[3\]
*913 i_TopModule\.mem_8\[4\]
*914 i_TopModule\.mem_9\[0\]
*915 i_TopModule\.mem_9\[1\]
*916 i_TopModule\.mem_9\[2\]
*917 i_TopModule\.mem_9\[3\]
*918 i_TopModule\.mem_9\[4\]
*919 i_TopModule\.outerCounter_value\[0\]
*920 i_TopModule\.outerCounter_value\[1\]
*921 i_TopModule\.outerCounter_value\[2\]
*922 i_TopModule\.outerCounter_value\[3\]
*923 i_TopModule\.outerCounter_value\[4\]
*924 i_TopModule\.slideCounter_value\[0\]
*925 i_TopModule\.slideCounter_value\[1\]
*926 i_TopModule\.slideCounter_value\[2\]
*927 i_TopModule\.slideCounter_value\[3\]
*928 net1
*929 net100
*930 net101
*931 net102
*932 net103
*933 net104
*934 net105
*935 net106
*936 net107
*937 net108
*938 net109
*939 net110
*940 net111
*941 net112
*942 net113
*943 net114
*944 net115
*945 net116
*946 net117
*947 net118
*948 net119
*949 net120
*950 net121
*951 net122
*952 net123
*953 net124
*954 net125
*955 net126
*956 net127
*957 net128
*958 net129
*959 net130
*960 net131
*961 net132
*962 net133
*963 net134
*964 net135
*965 net136
*966 net137
*967 net138
*968 net139
*969 net140
*970 net141
*971 net142
*972 net143
*973 net144
*974 net145
*975 net146
*976 net147
*977 net148
*978 net149
*979 net150
*980 net151
*981 net152
*982 net153
*983 net154
*984 net155
*985 net156
*986 net157
*987 net158
*988 net159
*989 net16
*990 net160
*991 net161
*992 net162
*993 net163
*994 net164
*995 net165
*996 net166
*997 net167
*998 net168
*999 net169
*1000 net17
*1001 net170
*1002 net171
*1003 net172
*1004 net173
*1005 net174
*1006 net175
*1007 net176
*1008 net177
*1009 net178
*1010 net179
*1011 net18
*1012 net180
*1013 net181
*1014 net182
*1015 net183
*1016 net184
*1017 net185
*1018 net186
*1019 net187
*1020 net188
*1021 net189
*1022 net19
*1023 net190
*1024 net191
*1025 net192
*1026 net193
*1027 net194
*1028 net195
*1029 net196
*1030 net197
*1031 net198
*1032 net199
*1033 net2
*1034 net20
*1035 net200
*1036 net201
*1037 net202
*1038 net203
*1039 net204
*1040 net205
*1041 net206
*1042 net207
*1043 net208
*1044 net209
*1045 net21
*1046 net210
*1047 net211
*1048 net212
*1049 net213
*1050 net214
*1051 net215
*1052 net216
*1053 net217
*1054 net218
*1055 net219
*1056 net22
*1057 net220
*1058 net221
*1059 net222
*1060 net223
*1061 net224
*1062 net225
*1063 net226
*1064 net227
*1065 net228
*1066 net229
*1067 net23
*1068 net230
*1069 net231
*1070 net232
*1071 net233
*1072 net234
*1073 net235
*1074 net236
*1075 net237
*1076 net238
*1077 net24
*1078 net25
*1079 net26
*1080 net27
*1081 net28
*1082 net29
*1083 net3
*1084 net30
*1085 net31
*1086 net32
*1087 net33
*1088 net34
*1089 net35
*1090 net36
*1091 net37
*1092 net38
*1093 net39
*1094 net4
*1095 net40
*1096 net41
*1097 net42
*1098 net43
*1099 net44
*1100 net45
*1101 net46
*1102 net47
*1103 net48
*1104 net49
*1105 net5
*1106 net50
*1107 net51
*1108 net52
*1109 net53
*1110 net54
*1111 net55
*1112 net56
*1113 net57
*1114 net58
*1115 net59
*1116 net6
*1117 net60
*1118 net61
*1119 net62
*1120 net63
*1121 net64
*1122 net65
*1123 net66
*1124 net67
*1125 net68
*1126 net69
*1127 net7
*1128 net70
*1129 net71
*1130 net72
*1131 net73
*1132 net74
*1133 net75
*1134 net76
*1135 net77
*1136 net78
*1137 net79
*1138 net80
*1139 net81
*1140 net82
*1141 net83
*1142 net84
*1143 net85
*1144 net86
*1145 net87
*1146 net88
*1147 net89
*1148 net90
*1149 net91
*1150 net92
*1151 net93
*1152 net94
*1153 net95
*1154 net96
*1155 net97
*1156 net98
*1157 net99
*1158 ANTENNA_1
*1159 FILLER_0_0_109
*1160 FILLER_0_0_113
*1161 FILLER_0_0_125
*1162 FILLER_0_0_137
*1163 FILLER_0_0_141
*1164 FILLER_0_0_15
*1165 FILLER_0_0_167
*1166 FILLER_0_0_169
*1167 FILLER_0_0_194
*1168 FILLER_0_0_202
*1169 FILLER_0_0_214
*1170 FILLER_0_0_222
*1171 FILLER_0_0_225
*1172 FILLER_0_0_236
*1173 FILLER_0_0_240
*1174 FILLER_0_0_249
*1175 FILLER_0_0_253
*1176 FILLER_0_0_268
*1177 FILLER_0_0_27
*1178 FILLER_0_0_29
*1179 FILLER_0_0_291
*1180 FILLER_0_0_3
*1181 FILLER_0_0_303
*1182 FILLER_0_0_307
*1183 FILLER_0_0_309
*1184 FILLER_0_0_321
*1185 FILLER_0_0_333
*1186 FILLER_0_0_337
*1187 FILLER_0_0_349
*1188 FILLER_0_0_41
*1189 FILLER_0_0_53
*1190 FILLER_0_0_57
*1191 FILLER_0_0_69
*1192 FILLER_0_0_81
*1193 FILLER_0_0_85
*1194 FILLER_0_0_97
*1195 FILLER_0_10_106
*1196 FILLER_0_10_114
*1197 FILLER_0_10_137
*1198 FILLER_0_10_141
*1199 FILLER_0_10_15
*1200 FILLER_0_10_168
*1201 FILLER_0_10_172
*1202 FILLER_0_10_189
*1203 FILLER_0_10_205
*1204 FILLER_0_10_24
*1205 FILLER_0_10_241
*1206 FILLER_0_10_269
*1207 FILLER_0_10_29
*1208 FILLER_0_10_3
*1209 FILLER_0_10_307
*1210 FILLER_0_10_309
*1211 FILLER_0_10_327
*1212 FILLER_0_10_344
*1213 FILLER_0_10_350
*1214 FILLER_0_10_66
*1215 FILLER_0_10_94
*1216 FILLER_0_11_107
*1217 FILLER_0_11_11
*1218 FILLER_0_11_111
*1219 FILLER_0_11_113
*1220 FILLER_0_11_121
*1221 FILLER_0_11_130
*1222 FILLER_0_11_174
*1223 FILLER_0_11_205
*1224 FILLER_0_11_233
*1225 FILLER_0_11_279
*1226 FILLER_0_11_297
*1227 FILLER_0_11_3
*1228 FILLER_0_11_333
*1229 FILLER_0_11_350
*1230 FILLER_0_11_49
*1231 FILLER_0_11_55
*1232 FILLER_0_11_57
*1233 FILLER_0_11_63
*1234 FILLER_0_11_68
*1235 FILLER_0_11_90
*1236 FILLER_0_12_111
*1237 FILLER_0_12_123
*1238 FILLER_0_12_234
*1239 FILLER_0_12_242
*1240 FILLER_0_12_253
*1241 FILLER_0_12_27
*1242 FILLER_0_12_279
*1243 FILLER_0_12_294
*1244 FILLER_0_12_3
*1245 FILLER_0_12_47
*1246 FILLER_0_12_55
*1247 FILLER_0_12_67
*1248 FILLER_0_12_7
*1249 FILLER_0_12_85
*1250 FILLER_0_13_11
*1251 FILLER_0_13_111
*1252 FILLER_0_13_118
*1253 FILLER_0_13_145
*1254 FILLER_0_13_193
*1255 FILLER_0_13_199
*1256 FILLER_0_13_230
*1257 FILLER_0_13_242
*1258 FILLER_0_13_250
*1259 FILLER_0_13_291
*1260 FILLER_0_13_3
*1261 FILLER_0_13_323
*1262 FILLER_0_13_334
*1263 FILLER_0_13_345
*1264 FILLER_0_13_39
*1265 FILLER_0_13_51
*1266 FILLER_0_13_55
*1267 FILLER_0_13_57
*1268 FILLER_0_13_69
*1269 FILLER_0_13_75
*1270 FILLER_0_13_84
*1271 FILLER_0_13_92
*1272 FILLER_0_14_11
*1273 FILLER_0_14_132
*1274 FILLER_0_14_157
*1275 FILLER_0_14_190
*1276 FILLER_0_14_230
*1277 FILLER_0_14_251
*1278 FILLER_0_14_253
*1279 FILLER_0_14_257
*1280 FILLER_0_14_284
*1281 FILLER_0_14_288
*1282 FILLER_0_14_293
*1283 FILLER_0_14_297
*1284 FILLER_0_14_3
*1285 FILLER_0_14_325
*1286 FILLER_0_14_344
*1287 FILLER_0_14_350
*1288 FILLER_0_14_38
*1289 FILLER_0_14_65
*1290 FILLER_0_14_73
*1291 FILLER_0_14_77
*1292 FILLER_0_14_90
*1293 FILLER_0_15_109
*1294 FILLER_0_15_130
*1295 FILLER_0_15_138
*1296 FILLER_0_15_151
*1297 FILLER_0_15_169
*1298 FILLER_0_15_199
*1299 FILLER_0_15_249
*1300 FILLER_0_15_277
*1301 FILLER_0_15_297
*1302 FILLER_0_15_3
*1303 FILLER_0_15_31
*1304 FILLER_0_15_315
*1305 FILLER_0_15_335
*1306 FILLER_0_15_337
*1307 FILLER_0_15_346
*1308 FILLER_0_15_350
*1309 FILLER_0_15_57
*1310 FILLER_0_15_83
*1311 FILLER_0_15_9
*1312 FILLER_0_15_97
*1313 FILLER_0_16_110
*1314 FILLER_0_16_114
*1315 FILLER_0_16_118
*1316 FILLER_0_16_127
*1317 FILLER_0_16_139
*1318 FILLER_0_16_141
*1319 FILLER_0_16_15
*1320 FILLER_0_16_153
*1321 FILLER_0_16_195
*1322 FILLER_0_16_197
*1323 FILLER_0_16_208
*1324 FILLER_0_16_236
*1325 FILLER_0_16_291
*1326 FILLER_0_16_3
*1327 FILLER_0_16_325
*1328 FILLER_0_16_350
*1329 FILLER_0_16_38
*1330 FILLER_0_16_42
*1331 FILLER_0_16_46
*1332 FILLER_0_16_56
*1333 FILLER_0_16_80
*1334 FILLER_0_17_102
*1335 FILLER_0_17_110
*1336 FILLER_0_17_113
*1337 FILLER_0_17_119
*1338 FILLER_0_17_143
*1339 FILLER_0_17_15
*1340 FILLER_0_17_155
*1341 FILLER_0_17_161
*1342 FILLER_0_17_167
*1343 FILLER_0_17_169
*1344 FILLER_0_17_173
*1345 FILLER_0_17_211
*1346 FILLER_0_17_221
*1347 FILLER_0_17_241
*1348 FILLER_0_17_248
*1349 FILLER_0_17_252
*1350 FILLER_0_17_278
*1351 FILLER_0_17_3
*1352 FILLER_0_17_335
*1353 FILLER_0_17_350
*1354 FILLER_0_17_36
*1355 FILLER_0_17_48
*1356 FILLER_0_17_62
*1357 FILLER_0_17_74
*1358 FILLER_0_18_110
*1359 FILLER_0_18_126
*1360 FILLER_0_18_15
*1361 FILLER_0_18_153
*1362 FILLER_0_18_165
*1363 FILLER_0_18_21
*1364 FILLER_0_18_213
*1365 FILLER_0_18_249
*1366 FILLER_0_18_25
*1367 FILLER_0_18_253
*1368 FILLER_0_18_3
*1369 FILLER_0_18_341
*1370 FILLER_0_18_45
*1371 FILLER_0_18_57
*1372 FILLER_0_18_62
*1373 FILLER_0_18_74
*1374 FILLER_0_18_82
*1375 FILLER_0_19_104
*1376 FILLER_0_19_11
*1377 FILLER_0_19_113
*1378 FILLER_0_19_121
*1379 FILLER_0_19_131
*1380 FILLER_0_19_155
*1381 FILLER_0_19_167
*1382 FILLER_0_19_169
*1383 FILLER_0_19_180
*1384 FILLER_0_19_239
*1385 FILLER_0_19_251
*1386 FILLER_0_19_257
*1387 FILLER_0_19_279
*1388 FILLER_0_19_293
*1389 FILLER_0_19_3
*1390 FILLER_0_19_315
*1391 FILLER_0_19_332
*1392 FILLER_0_19_345
*1393 FILLER_0_19_44
*1394 FILLER_0_19_48
*1395 FILLER_0_19_74
*1396 FILLER_0_19_80
*1397 FILLER_0_19_89
*1398 FILLER_0_1_102
*1399 FILLER_0_1_110
*1400 FILLER_0_1_113
*1401 FILLER_0_1_125
*1402 FILLER_0_1_137
*1403 FILLER_0_1_145
*1404 FILLER_0_1_15
*1405 FILLER_0_1_162
*1406 FILLER_0_1_193
*1407 FILLER_0_1_215
*1408 FILLER_0_1_249
*1409 FILLER_0_1_253
*1410 FILLER_0_1_27
*1411 FILLER_0_1_278
*1412 FILLER_0_1_297
*1413 FILLER_0_1_3
*1414 FILLER_0_1_315
*1415 FILLER_0_1_327
*1416 FILLER_0_1_335
*1417 FILLER_0_1_337
*1418 FILLER_0_1_349
*1419 FILLER_0_1_39
*1420 FILLER_0_1_47
*1421 FILLER_0_1_57
*1422 FILLER_0_1_90
*1423 FILLER_0_20_106
*1424 FILLER_0_20_117
*1425 FILLER_0_20_129
*1426 FILLER_0_20_137
*1427 FILLER_0_20_141
*1428 FILLER_0_20_153
*1429 FILLER_0_20_168
*1430 FILLER_0_20_176
*1431 FILLER_0_20_182
*1432 FILLER_0_20_195
*1433 FILLER_0_20_197
*1434 FILLER_0_20_207
*1435 FILLER_0_20_215
*1436 FILLER_0_20_224
*1437 FILLER_0_20_236
*1438 FILLER_0_20_248
*1439 FILLER_0_20_253
*1440 FILLER_0_20_26
*1441 FILLER_0_20_265
*1442 FILLER_0_20_3
*1443 FILLER_0_20_305
*1444 FILLER_0_20_309
*1445 FILLER_0_20_347
*1446 FILLER_0_20_51
*1447 FILLER_0_20_83
*1448 FILLER_0_20_9
*1449 FILLER_0_20_94
*1450 FILLER_0_21_130
*1451 FILLER_0_21_142
*1452 FILLER_0_21_15
*1453 FILLER_0_21_153
*1454 FILLER_0_21_183
*1455 FILLER_0_21_194
*1456 FILLER_0_21_206
*1457 FILLER_0_21_212
*1458 FILLER_0_21_222
*1459 FILLER_0_21_247
*1460 FILLER_0_21_259
*1461 FILLER_0_21_277
*1462 FILLER_0_21_286
*1463 FILLER_0_21_3
*1464 FILLER_0_21_311
*1465 FILLER_0_21_345
*1466 FILLER_0_21_41
*1467 FILLER_0_21_53
*1468 FILLER_0_21_57
*1469 FILLER_0_21_65
*1470 FILLER_0_21_85
*1471 FILLER_0_21_97
*1472 FILLER_0_22_120
*1473 FILLER_0_22_141
*1474 FILLER_0_22_15
*1475 FILLER_0_22_152
*1476 FILLER_0_22_193
*1477 FILLER_0_22_197
*1478 FILLER_0_22_214
*1479 FILLER_0_22_232
*1480 FILLER_0_22_251
*1481 FILLER_0_22_253
*1482 FILLER_0_22_26
*1483 FILLER_0_22_265
*1484 FILLER_0_22_269
*1485 FILLER_0_22_29
*1486 FILLER_0_22_3
*1487 FILLER_0_22_307
*1488 FILLER_0_22_322
*1489 FILLER_0_22_347
*1490 FILLER_0_22_41
*1491 FILLER_0_22_53
*1492 FILLER_0_22_61
*1493 FILLER_0_22_82
*1494 FILLER_0_22_85
*1495 FILLER_0_22_97
*1496 FILLER_0_23_118
*1497 FILLER_0_23_15
*1498 FILLER_0_23_165
*1499 FILLER_0_23_169
*1500 FILLER_0_23_180
*1501 FILLER_0_23_19
*1502 FILLER_0_23_202
*1503 FILLER_0_23_225
*1504 FILLER_0_23_255
*1505 FILLER_0_23_26
*1506 FILLER_0_23_267
*1507 FILLER_0_23_273
*1508 FILLER_0_23_3
*1509 FILLER_0_23_333
*1510 FILLER_0_23_350
*1511 FILLER_0_23_48
*1512 FILLER_0_23_57
*1513 FILLER_0_23_86
*1514 FILLER_0_23_94
*1515 FILLER_0_24_113
*1516 FILLER_0_24_128
*1517 FILLER_0_24_141
*1518 FILLER_0_24_153
*1519 FILLER_0_24_172
*1520 FILLER_0_24_184
*1521 FILLER_0_24_193
*1522 FILLER_0_24_197
*1523 FILLER_0_24_203
*1524 FILLER_0_24_216
*1525 FILLER_0_24_222
*1526 FILLER_0_24_250
*1527 FILLER_0_24_253
*1528 FILLER_0_24_265
*1529 FILLER_0_24_27
*1530 FILLER_0_24_277
*1531 FILLER_0_24_287
*1532 FILLER_0_24_3
*1533 FILLER_0_24_304
*1534 FILLER_0_24_309
*1535 FILLER_0_24_315
*1536 FILLER_0_24_345
*1537 FILLER_0_24_35
*1538 FILLER_0_24_54
*1539 FILLER_0_24_93
*1540 FILLER_0_25_100
*1541 FILLER_0_25_123
*1542 FILLER_0_25_135
*1543 FILLER_0_25_147
*1544 FILLER_0_25_169
*1545 FILLER_0_25_181
*1546 FILLER_0_25_197
*1547 FILLER_0_25_209
*1548 FILLER_0_25_221
*1549 FILLER_0_25_225
*1550 FILLER_0_25_269
*1551 FILLER_0_25_281
*1552 FILLER_0_25_3
*1553 FILLER_0_25_308
*1554 FILLER_0_25_350
*1555 FILLER_0_25_39
*1556 FILLER_0_25_47
*1557 FILLER_0_25_55
*1558 FILLER_0_25_57
*1559 FILLER_0_25_61
*1560 FILLER_0_25_66
*1561 FILLER_0_25_84
*1562 FILLER_0_25_9
*1563 FILLER_0_25_96
*1564 FILLER_0_26_105
*1565 FILLER_0_26_11
*1566 FILLER_0_26_125
*1567 FILLER_0_26_137
*1568 FILLER_0_26_141
*1569 FILLER_0_26_171
*1570 FILLER_0_26_179
*1571 FILLER_0_26_197
*1572 FILLER_0_26_203
*1573 FILLER_0_26_222
*1574 FILLER_0_26_234
*1575 FILLER_0_26_242
*1576 FILLER_0_26_269
*1577 FILLER_0_26_277
*1578 FILLER_0_26_3
*1579 FILLER_0_26_306
*1580 FILLER_0_26_309
*1581 FILLER_0_26_347
*1582 FILLER_0_26_48
*1583 FILLER_0_26_52
*1584 FILLER_0_26_61
*1585 FILLER_0_26_67
*1586 FILLER_0_26_85
*1587 FILLER_0_26_93
*1588 FILLER_0_27_110
*1589 FILLER_0_27_122
*1590 FILLER_0_27_134
*1591 FILLER_0_27_140
*1592 FILLER_0_27_15
*1593 FILLER_0_27_157
*1594 FILLER_0_27_169
*1595 FILLER_0_27_179
*1596 FILLER_0_27_21
*1597 FILLER_0_27_223
*1598 FILLER_0_27_228
*1599 FILLER_0_27_240
*1600 FILLER_0_27_276
*1601 FILLER_0_27_28
*1602 FILLER_0_27_281
*1603 FILLER_0_27_3
*1604 FILLER_0_27_313
*1605 FILLER_0_27_319
*1606 FILLER_0_27_350
*1607 FILLER_0_27_40
*1608 FILLER_0_27_74
*1609 FILLER_0_27_82
*1610 FILLER_0_28_11
*1611 FILLER_0_28_112
*1612 FILLER_0_28_130
*1613 FILLER_0_28_138
*1614 FILLER_0_28_190
*1615 FILLER_0_28_197
*1616 FILLER_0_28_203
*1617 FILLER_0_28_21
*1618 FILLER_0_28_225
*1619 FILLER_0_28_244
*1620 FILLER_0_28_27
*1621 FILLER_0_28_282
*1622 FILLER_0_28_289
*1623 FILLER_0_28_29
*1624 FILLER_0_28_3
*1625 FILLER_0_28_306
*1626 FILLER_0_28_314
*1627 FILLER_0_28_34
*1628 FILLER_0_28_350
*1629 FILLER_0_28_43
*1630 FILLER_0_28_55
*1631 FILLER_0_28_64
*1632 FILLER_0_28_76
*1633 FILLER_0_29_11
*1634 FILLER_0_29_122
*1635 FILLER_0_29_134
*1636 FILLER_0_29_146
*1637 FILLER_0_29_152
*1638 FILLER_0_29_169
*1639 FILLER_0_29_173
*1640 FILLER_0_29_179
*1641 FILLER_0_29_221
*1642 FILLER_0_29_225
*1643 FILLER_0_29_231
*1644 FILLER_0_29_248
*1645 FILLER_0_29_273
*1646 FILLER_0_29_3
*1647 FILLER_0_29_320
*1648 FILLER_0_29_334
*1649 FILLER_0_29_350
*1650 FILLER_0_29_61
*1651 FILLER_0_29_77
*1652 FILLER_0_2_109
*1653 FILLER_0_2_121
*1654 FILLER_0_2_141
*1655 FILLER_0_2_15
*1656 FILLER_0_2_191
*1657 FILLER_0_2_195
*1658 FILLER_0_2_197
*1659 FILLER_0_2_208
*1660 FILLER_0_2_231
*1661 FILLER_0_2_249
*1662 FILLER_0_2_266
*1663 FILLER_0_2_27
*1664 FILLER_0_2_29
*1665 FILLER_0_2_3
*1666 FILLER_0_2_322
*1667 FILLER_0_2_334
*1668 FILLER_0_2_346
*1669 FILLER_0_2_350
*1670 FILLER_0_2_37
*1671 FILLER_0_2_42
*1672 FILLER_0_2_46
*1673 FILLER_0_2_72
*1674 FILLER_0_2_83
*1675 FILLER_0_2_97
*1676 FILLER_0_30_113
*1677 FILLER_0_30_130
*1678 FILLER_0_30_136
*1679 FILLER_0_30_145
*1680 FILLER_0_30_15
*1681 FILLER_0_30_153
*1682 FILLER_0_30_162
*1683 FILLER_0_30_179
*1684 FILLER_0_30_191
*1685 FILLER_0_30_195
*1686 FILLER_0_30_197
*1687 FILLER_0_30_206
*1688 FILLER_0_30_21
*1689 FILLER_0_30_212
*1690 FILLER_0_30_243
*1691 FILLER_0_30_251
*1692 FILLER_0_30_253
*1693 FILLER_0_30_279
*1694 FILLER_0_30_3
*1695 FILLER_0_30_306
*1696 FILLER_0_30_349
*1697 FILLER_0_30_48