*SPEF "ieee 1481-1999"
*DESIGN "tt_um_wokwi_380120751165092865"
*DATE "11:11:11 Fri 11 11, 1111"
*VENDOR "OpenRCX"
*PROGRAM "Parallel Extraction"
*VERSION "1.0"
*DESIGN_FLOW "NAME_SCOPE LOCAL" "PIN_CAP NONE"
*DIVIDER /
*DELIMITER :
*BUS_DELIMITER []
*T_UNIT 1 NS
*C_UNIT 1 PF
*R_UNIT 1 OHM
*L_UNIT 1 HENRY

*NAME_MAP
*3 clk
*4 ena
*5 rst_n
*6 ui_in[0]
*7 ui_in[1]
*8 ui_in[2]
*9 ui_in[3]
*10 ui_in[4]
*11 ui_in[5]
*12 ui_in[6]
*13 ui_in[7]
*14 uio_in[0]
*15 uio_in[1]
*16 uio_in[2]
*17 uio_in[3]
*18 uio_in[4]
*19 uio_in[5]
*20 uio_in[6]
*21 uio_in[7]
*22 net8
*23 net9
*24 net10
*25 net11
*26 net12
*27 net13
*28 net14
*29 net15
*30 net16
*31 net17
*32 net18
*33 net19
*34 net20
*35 net21
*36 net22
*37 net23
*38 uo_out[0]
*39 uo_out[1]
*40 uo_out[2]
*41 uo_out[3]
*42 uo_out[4]
*43 net24
*44 net25
*45 net26
*46 _000_
*47 _001_
*48 _002_
*49 _003_
*50 _004_
*51 _005_
*52 _006_
*53 _007_
*54 _008_
*55 _009_
*56 _010_
*57 _011_
*58 _012_
*59 _013_
*60 _014_
*61 _015_
*62 _016_
*63 _017_
*64 _018_
*65 _019_
*66 _020_
*67 _021_
*68 _022_
*69 _023_
*70 _024_
*71 _025_
*72 _026_
*73 _027_
*74 _028_
*75 _029_
*76 _030_
*77 _031_
*78 _032_
*79 _033_
*80 _034_
*81 _035_
*82 _036_
*83 _037_
*84 and1\.b
*85 and1\.out
*86 and11\.a
*87 and12\.a
*88 and12\.b
*89 and13\.a
*90 and13\.b
*91 and13\.out
*92 and16\.a
*93 and2\.out
*94 and3\.a
*95 and3\.b
*96 and4\.b
*97 and5\.out
*98 and6\.out
*99 and7\.out
*100 clknet_0_flop17\.clk
*101 clknet_1_0__leaf_flop17\.clk
*102 clknet_1_1__leaf_flop17\.clk
*103 flop1\.d
*104 flop1\.q
*105 flop10\.d
*106 flop10\.q
*107 flop11\.q
*108 flop13\.d
*109 flop13\.q
*110 flop14\.q
*111 flop15\.q
*112 flop17\.clk
*113 flop2\.q
*114 flop21\.d
*115 flop22\.d
*116 flop24\.d
*117 flop24\.q
*118 flop25\.d
*119 flop25\.q
*120 flop26\.d
*121 flop26\.q
*122 flop27\.d
*123 flop27\.q
*124 flop28\.d
*125 flop28\.q
*126 flop29\.d
*127 flop29\.q
*128 flop3\.q
*129 flop30\.d
*130 flop30\.q
*131 flop31\.d
*132 flop31\.q
*133 flop32\.d
*134 flop32\.q
*135 flop33\.d
*136 flop33\.q
*137 flop34\.d
*138 flop34\.q
*139 flop35\.d
*140 flop35\.q
*141 flop36\.d
*142 flop36\.q
*143 flop37\.d
*144 flop37\.q
*145 flop38\.d
*146 flop38\.q
*147 flop39\.clk
*148 flop39\.d
*149 flop4\.q
*150 flop40\.d
*151 flop40\.q
*152 flop5\.q
*153 flop6\.q
*154 flop7\.q
*155 flop8\.q
*156 net1
*157 net2
*158 net27
*159 net28
*160 net29
*161 net3
*162 net4
*163 net5
*164 net6
*165 net7
*166 FILLER_0_0_109
*167 FILLER_0_0_113
*168 FILLER_0_0_125
*169 FILLER_0_0_137
*170 FILLER_0_0_141
*171 FILLER_0_0_15
*172 FILLER_0_0_153
*173 FILLER_0_0_165
*174 FILLER_0_0_169
*175 FILLER_0_0_181
*176 FILLER_0_0_193
*177 FILLER_0_0_197
*178 FILLER_0_0_209
*179 FILLER_0_0_221
*180 FILLER_0_0_225
*181 FILLER_0_0_237
*182 FILLER_0_0_249
*183 FILLER_0_0_253
*184 FILLER_0_0_265
*185 FILLER_0_0_27
*186 FILLER_0_0_277
*187 FILLER_0_0_281
*188 FILLER_0_0_29
*189 FILLER_0_0_293
*190 FILLER_0_0_3
*191 FILLER_0_0_305
*192 FILLER_0_0_309
*193 FILLER_0_0_321
*194 FILLER_0_0_333
*195 FILLER_0_0_337
*196 FILLER_0_0_349
*197 FILLER_0_0_41
*198 FILLER_0_0_53
*199 FILLER_0_0_57
*200 FILLER_0_0_69
*201 FILLER_0_0_81
*202 FILLER_0_0_85
*203 FILLER_0_0_97
*204 FILLER_0_10_109
*205 FILLER_0_10_121
*206 FILLER_0_10_133
*207 FILLER_0_10_139
*208 FILLER_0_10_141
*209 FILLER_0_10_15
*210 FILLER_0_10_153
*211 FILLER_0_10_165
*212 FILLER_0_10_177
*213 FILLER_0_10_189
*214 FILLER_0_10_195
*215 FILLER_0_10_197
*216 FILLER_0_10_209
*217 FILLER_0_10_221
*218 FILLER_0_10_233
*219 FILLER_0_10_245
*220 FILLER_0_10_251
*221 FILLER_0_10_253
*222 FILLER_0_10_265
*223 FILLER_0_10_27
*224 FILLER_0_10_277
*225 FILLER_0_10_289
*226 FILLER_0_10_29
*227 FILLER_0_10_3
*228 FILLER_0_10_301
*229 FILLER_0_10_307
*230 FILLER_0_10_309
*231 FILLER_0_10_321
*232 FILLER_0_10_333
*233 FILLER_0_10_345
*234 FILLER_0_10_41
*235 FILLER_0_10_53
*236 FILLER_0_10_65
*237 FILLER_0_10_77
*238 FILLER_0_10_83
*239 FILLER_0_10_85
*240 FILLER_0_10_97
*241 FILLER_0_11_105
*242 FILLER_0_11_111
*243 FILLER_0_11_113
*244 FILLER_0_11_125
*245 FILLER_0_11_137
*246 FILLER_0_11_149
*247 FILLER_0_11_15
*248 FILLER_0_11_161
*249 FILLER_0_11_167
*250 FILLER_0_11_169
*251 FILLER_0_11_181
*252 FILLER_0_11_193
*253 FILLER_0_11_205
*254 FILLER_0_11_217
*255 FILLER_0_11_223
*256 FILLER_0_11_225
*257 FILLER_0_11_237
*258 FILLER_0_11_249
*259 FILLER_0_11_261
*260 FILLER_0_11_27
*261 FILLER_0_11_273
*262 FILLER_0_11_279
*263 FILLER_0_11_281
*264 FILLER_0_11_293
*265 FILLER_0_11_3
*266 FILLER_0_11_305
*267 FILLER_0_11_317
*268 FILLER_0_11_329
*269 FILLER_0_11_335
*270 FILLER_0_11_337
*271 FILLER_0_11_349
*272 FILLER_0_11_39
*273 FILLER_0_11_51
*274 FILLER_0_11_55
*275 FILLER_0_11_57
*276 FILLER_0_11_69
*277 FILLER_0_11_81
*278 FILLER_0_11_93
*279 FILLER_0_12_109
*280 FILLER_0_12_121
*281 FILLER_0_12_133
*282 FILLER_0_12_139
*283 FILLER_0_12_141
*284 FILLER_0_12_15
*285 FILLER_0_12_153
*286 FILLER_0_12_165
*287 FILLER_0_12_177
*288 FILLER_0_12_189
*289 FILLER_0_12_195
*290 FILLER_0_12_197
*291 FILLER_0_12_209
*292 FILLER_0_12_221
*293 FILLER_0_12_233
*294 FILLER_0_12_245
*295 FILLER_0_12_251
*296 FILLER_0_12_253
*297 FILLER_0_12_265
*298 FILLER_0_12_27
*299 FILLER_0_12_277
*300 FILLER_0_12_289
*301 FILLER_0_12_29
*302 FILLER_0_12_3
*303 FILLER_0_12_301
*304 FILLER_0_12_307
*305 FILLER_0_12_309
*306 FILLER_0_12_321
*307 FILLER_0_12_333
*308 FILLER_0_12_345
*309 FILLER_0_12_41
*310 FILLER_0_12_53
*311 FILLER_0_12_65
*312 FILLER_0_12_77
*313 FILLER_0_12_83
*314 FILLER_0_12_85
*315 FILLER_0_12_97
*316 FILLER_0_13_105
*317 FILLER_0_13_111
*318 FILLER_0_13_113
*319 FILLER_0_13_125
*320 FILLER_0_13_137
*321 FILLER_0_13_149
*322 FILLER_0_13_15
*323 FILLER_0_13_161
*324 FILLER_0_13_167
*325 FILLER_0_13_169
*326 FILLER_0_13_181
*327 FILLER_0_13_193
*328 FILLER_0_13_205
*329 FILLER_0_13_217
*330 FILLER_0_13_223
*331 FILLER_0_13_225
*332 FILLER_0_13_237
*333 FILLER_0_13_249
*334 FILLER_0_13_261
*335 FILLER_0_13_27
*336 FILLER_0_13_273
*337 FILLER_0_13_279
*338 FILLER_0_13_281
*339 FILLER_0_13_293
*340 FILLER_0_13_3
*341 FILLER_0_13_305
*342 FILLER_0_13_317
*343 FILLER_0_13_329
*344 FILLER_0_13_335
*345 FILLER_0_13_337
*346 FILLER_0_13_349
*347 FILLER_0_13_39
*348 FILLER_0_13_51
*349 FILLER_0_13_55
*350 FILLER_0_13_57
*351 FILLER_0_13_69
*352 FILLER_0_13_81
*353 FILLER_0_13_93
*354 FILLER_0_14_109
*355 FILLER_0_14_121
*356 FILLER_0_14_133
*357 FILLER_0_14_139
*358 FILLER_0_14_141
*359 FILLER_0_14_15
*360 FILLER_0_14_153
*361 FILLER_0_14_165
*362 FILLER_0_14_177
*363 FILLER_0_14_189
*364 FILLER_0_14_195
*365 FILLER_0_14_197
*366 FILLER_0_14_209
*367 FILLER_0_14_221
*368 FILLER_0_14_233
*369 FILLER_0_14_245
*370 FILLER_0_14_251
*371 FILLER_0_14_253
*372 FILLER_0_14_265
*373 FILLER_0_14_27
*374 FILLER_0_14_277
*375 FILLER_0_14_289
*376 FILLER_0_14_29
*377 FILLER_0_14_3
*378 FILLER_0_14_301
*379 FILLER_0_14_307
*380 FILLER_0_14_309
*381 FILLER_0_14_321
*382 FILLER_0_14_333
*383 FILLER_0_14_345
*384 FILLER_0_14_41
*385 FILLER_0_14_53
*386 FILLER_0_14_65
*387 FILLER_0_14_77
*388 FILLER_0_14_83
*389 FILLER_0_14_85
*390 FILLER_0_14_97
*391 FILLER_0_15_105
*392 FILLER_0_15_111
*393 FILLER_0_15_113
*394 FILLER_0_15_125
*395 FILLER_0_15_137
*396 FILLER_0_15_149
*397 FILLER_0_15_15
*398 FILLER_0_15_161
*399 FILLER_0_15_167
*400 FILLER_0_15_169
*401 FILLER_0_15_181
*402 FILLER_0_15_193
*403 FILLER_0_15_205
*404 FILLER_0_15_217
*405 FILLER_0_15_223
*406 FILLER_0_15_225
*407 FILLER_0_15_237
*408 FILLER_0_15_249
*409 FILLER_0_15_261
*410 FILLER_0_15_27
*411 FILLER_0_15_273
*412 FILLER_0_15_279
*413 FILLER_0_15_281
*414 FILLER_0_15_293
*415 FILLER_0_15_3
*416 FILLER_0_15_305
*417 FILLER_0_15_317
*418 FILLER_0_15_329
*419 FILLER_0_15_335
*420 FILLER_0_15_337
*421 FILLER_0_15_349
*422 FILLER_0_15_39
*423 FILLER_0_15_51
*424 FILLER_0_15_55
*425 FILLER_0_15_57
*426 FILLER_0_15_69
*427 FILLER_0_15_81
*428 FILLER_0_15_93
*429 FILLER_0_16_109
*430 FILLER_0_16_121
*431 FILLER_0_16_133
*432 FILLER_0_16_139
*433 FILLER_0_16_141
*434 FILLER_0_16_15
*435 FILLER_0_16_153
*436 FILLER_0_16_165
*437 FILLER_0_16_177
*438 FILLER_0_16_189
*439 FILLER_0_16_195
*440 FILLER_0_16_197
*441 FILLER_0_16_209
*442 FILLER_0_16_221
*443 FILLER_0_16_233
*444 FILLER_0_16_245
*445 FILLER_0_16_251
*446 FILLER_0_16_253
*447 FILLER_0_16_265
*448 FILLER_0_16_27
*449 FILLER_0_16_277
*450 FILLER_0_16_289
*451 FILLER_0_16_29
*452 FILLER_0_16_3
*453 FILLER_0_16_301
*454 FILLER_0_16_307
*455 FILLER_0_16_309
*456 FILLER_0_16_321
*457 FILLER_0_16_333
*458 FILLER_0_16_345
*459 FILLER_0_16_41
*460 FILLER_0_16_53
*461 FILLER_0_16_65
*462 FILLER_0_16_77
*463 FILLER_0_16_83
*464 FILLER_0_16_85
*465 FILLER_0_16_97
*466 FILLER_0_17_105
*467 FILLER_0_17_111
*468 FILLER_0_17_113
*469 FILLER_0_17_125
*470 FILLER_0_17_137
*471 FILLER_0_17_149
*472 FILLER_0_17_15
*473 FILLER_0_17_161
*474 FILLER_0_17_167
*475 FILLER_0_17_169
*476 FILLER_0_17_181
*477 FILLER_0_17_193
*478 FILLER_0_17_205
*479 FILLER_0_17_217
*480 FILLER_0_17_223
*481 FILLER_0_17_225
*482 FILLER_0_17_237
*483 FILLER_0_17_249
*484 FILLER_0_17_261
*485 FILLER_0_17_27
*486 FILLER_0_17_273
*487 FILLER_0_17_279
*488 FILLER_0_17_281
*489 FILLER_0_17_293
*490 FILLER_0_17_3
*491 FILLER_0_17_305
*492 FILLER_0_17_317
*493 FILLER_0_17_329
*494 FILLER_0_17_335
*495 FILLER_0_17_337
*496 FILLER_0_17_349
*497 FILLER_0_17_39
*498 FILLER_0_17_51
*499 FILLER_0_17_55
*500 FILLER_0_17_57
*501 FILLER_0_17_69
*502 FILLER_0_17_81
*503 FILLER_0_17_93
*504 FILLER_0_18_109
*505 FILLER_0_18_121
*506 FILLER_0_18_133
*507 FILLER_0_18_139
*508 FILLER_0_18_141
*509 FILLER_0_18_15
*510 FILLER_0_18_153
*511 FILLER_0_18_165
*512 FILLER_0_18_177
*513 FILLER_0_18_189
*514 FILLER_0_18_195
*515 FILLER_0_18_197
*516 FILLER_0_18_209
*517 FILLER_0_18_221
*518 FILLER_0_18_233
*519 FILLER_0_18_245
*520 FILLER_0_18_251
*521 FILLER_0_18_253
*522 FILLER_0_18_265
*523 FILLER_0_18_27
*524 FILLER_0_18_277
*525 FILLER_0_18_289
*526 FILLER_0_18_29
*527 FILLER_0_18_3
*528 FILLER_0_18_301
*529 FILLER_0_18_307
*530 FILLER_0_18_309
*531 FILLER_0_18_321
*532 FILLER_0_18_333
*533 FILLER_0_18_345
*534 FILLER_0_18_41
*535 FILLER_0_18_53
*536 FILLER_0_18_65
*537 FILLER_0_18_77
*538 FILLER_0_18_83
*539 FILLER_0_18_85
*540 FILLER_0_18_97
*541 FILLER_0_19_105
*542 FILLER_0_19_111
*543 FILLER_0_19_113
*544 FILLER_0_19_125
*545 FILLER_0_19_137
*546 FILLER_0_19_149
*547 FILLER_0_19_15
*548 FILLER_0_19_161
*549 FILLER_0_19_167
*550 FILLER_0_19_169
*551 FILLER_0_19_181
*552 FILLER_0_19_193
*553 FILLER_0_19_205
*554 FILLER_0_19_217
*555 FILLER_0_19_223
*556 FILLER_0_19_225
*557 FILLER_0_19_237
*558 FILLER_0_19_249
*559 FILLER_0_19_261
*560 FILLER_0_19_27
*561 FILLER_0_19_273
*562 FILLER_0_19_279
*563 FILLER_0_19_281
*564 FILLER_0_19_293
*565 FILLER_0_19_3
*566 FILLER_0_19_305
*567 FILLER_0_19_317
*568 FILLER_0_19_329
*569 FILLER_0_19_335
*570 FILLER_0_19_337
*571 FILLER_0_19_349
*572 FILLER_0_19_39
*573 FILLER_0_19_51
*574 FILLER_0_19_55
*575 FILLER_0_19_57
*576 FILLER_0_19_69
*577 FILLER_0_19_81
*578 FILLER_0_19_93
*579 FILLER_0_1_105
*580 FILLER_0_1_111
*581 FILLER_0_1_113
*582 FILLER_0_1_125
*583 FILLER_0_1_137
*584 FILLER_0_1_149
*585 FILLER_0_1_15
*586 FILLER_0_1_161
*587 FILLER_0_1_167
*588 FILLER_0_1_169
*589 FILLER_0_1_181
*590 FILLER_0_1_193
*591 FILLER_0_1_205
*592 FILLER_0_1_217
*593 FILLER_0_1_223
*594 FILLER_0_1_225
*595 FILLER_0_1_237
*596 FILLER_0_1_249
*597 FILLER_0_1_261
*598 FILLER_0_1_27
*599 FILLER_0_1_273
*600 FILLER_0_1_279
*601 FILLER_0_1_281
*602 FILLER_0_1_293
*603 FILLER_0_1_3
*604 FILLER_0_1_305
*605 FILLER_0_1_317
*606 FILLER_0_1_329
*607 FILLER_0_1_335
*608 FILLER_0_1_337
*609 FILLER_0_1_349
*610 FILLER_0_1_39
*611 FILLER_0_1_51
*612 FILLER_0_1_55
*613 FILLER_0_1_57
*614 FILLER_0_1_69
*615 FILLER_0_1_81
*616 FILLER_0_1_93
*617 FILLER_0_20_109
*618 FILLER_0_20_121
*619 FILLER_0_20_133
*620 FILLER_0_20_139
*621 FILLER_0_20_141
*622 FILLER_0_20_15
*623 FILLER_0_20_153
*624 FILLER_0_20_165
*625 FILLER_0_20_177
*626 FILLER_0_20_189
*627 FILLER_0_20_195
*628 FILLER_0_20_197
*629 FILLER_0_20_209
*630 FILLER_0_20_221
*631 FILLER_0_20_233
*632 FILLER_0_20_245
*633 FILLER_0_20_251
*634 FILLER_0_20_253
*635 FILLER_0_20_265
*636 FILLER_0_20_27
*637 FILLER_0_20_277
*638 FILLER_0_20_289
*639 FILLER_0_20_29
*640 FILLER_0_20_3
*641 FILLER_0_20_301
*642 FILLER_0_20_307
*643 FILLER_0_20_309
*644 FILLER_0_20_321
*645 FILLER_0_20_333
*646 FILLER_0_20_345
*647 FILLER_0_20_41
*648 FILLER_0_20_53
*649 FILLER_0_20_65
*650 FILLER_0_20_77
*651 FILLER_0_20_83
*652 FILLER_0_20_85
*653 FILLER_0_20_97
*654 FILLER_0_21_105
*655 FILLER_0_21_111
*656 FILLER_0_21_113
*657 FILLER_0_21_125
*658 FILLER_0_21_137
*659 FILLER_0_21_149
*660 FILLER_0_21_15
*661 FILLER_0_21_161
*662 FILLER_0_21_167
*663 FILLER_0_21_169
*664 FILLER_0_21_181
*665 FILLER_0_21_193
*666 FILLER_0_21_205
*667 FILLER_0_21_217
*668 FILLER_0_21_223
*669 FILLER_0_21_225
*670 FILLER_0_21_237
*671 FILLER_0_21_249
*672 FILLER_0_21_261
*673 FILLER_0_21_27
*674 FILLER_0_21_273
*675 FILLER_0_21_279
*676 FILLER_0_21_281
*677 FILLER_0_21_293
*678 FILLER_0_21_3
*679 FILLER_0_21_305
*680 FILLER_0_21_317
*681 FILLER_0_21_329
*682 FILLER_0_21_335
*683 FILLER_0_21_337
*684 FILLER_0_21_349
*685 FILLER_0_21_39
*686 FILLER_0_21_51
*687 FILLER_0_21_55
*688 FILLER_0_21_57
*689 FILLER_0_21_69
*690 FILLER_0_21_81
*691 FILLER_0_21_93
*692 FILLER_0_22_109
*693 FILLER_0_22_121
*694 FILLER_0_22_133
*695 FILLER_0_22_139
*696 FILLER_0_22_141
*697 FILLER_0_22_15
*698 FILLER_0_22_153
*699 FILLER_0_22_165
*700 FILLER_0_22_177
*701 FILLER_0_22_189
*702 FILLER_0_22_195
*703 FILLER_0_22_197
*704 FILLER_0_22_209
*705 FILLER_0_22_221
*706 FILLER_0_22_233
*707 FILLER_0_22_245
*708 FILLER_0_22_251
*709 FILLER_0_22_253
*710 FILLER_0_22_265
*711 FILLER_0_22_27
*712 FILLER_0_22_277
*713 FILLER_0_22_289
*714 FILLER_0_22_29
*715 FILLER_0_22_3
*716 FILLER_0_22_301
*717 FILLER_0_22_307
*718 FILLER_0_22_309
*719 FILLER_0_22_321
*720 FILLER_0_22_333
*721 FILLER_0_22_345
*722 FILLER_0_22_41
*723 FILLER_0_22_53
*724 FILLER_0_22_65
*725 FILLER_0_22_77
*726 FILLER_0_22_83
*727 FILLER_0_22_85
*728 FILLER_0_22_97
*729 FILLER_0_23_105
*730 FILLER_0_23_111
*731 FILLER_0_23_113
*732 FILLER_0_23_125
*733 FILLER_0_23_137
*734 FILLER_0_23_149
*735 FILLER_0_23_15
*736 FILLER_0_23_161
*737 FILLER_0_23_167
*738 FILLER_0_23_169
*739 FILLER_0_23_181
*740 FILLER_0_23_193
*741 FILLER_0_23_205
*742 FILLER_0_23_217
*743 FILLER_0_23_223
*744 FILLER_0_23_225
*745 FILLER_0_23_237
*746 FILLER_0_23_249
*747 FILLER_0_23_261
*748 FILLER_0_23_27
*749 FILLER_0_23_273
*750 FILLER_0_23_279
*751 FILLER_0_23_281
*752 FILLER_0_23_293
*753 FILLER_0_23_3
*754 FILLER_0_23_305
*755 FILLER_0_23_317
*756 FILLER_0_23_329
*757 FILLER_0_23_335
*758 FILLER_0_23_337
*759 FILLER_0_23_349
*760 FILLER_0_23_39
*761 FILLER_0_23_51
*762 FILLER_0_23_55
*763 FILLER_0_23_57
*764 FILLER_0_23_69
*765 FILLER_0_23_81
*766 FILLER_0_23_93
*767 FILLER_0_24_109
*768 FILLER_0_24_121
*769 FILLER_0_24_133
*770 FILLER_0_24_139
*771 FILLER_0_24_141
*772 FILLER_0_24_15
*773 FILLER_0_24_153
*774 FILLER_0_24_165
*775 FILLER_0_24_177
*776 FILLER_0_24_189
*777 FILLER_0_24_195
*778 FILLER_0_24_197
*779 FILLER_0_24_209
*780 FILLER_0_24_221
*781 FILLER_0_24_233
*782 FILLER_0_24_245
*783 FILLER_0_24_251
*784 FILLER_0_24_253
*785 FILLER_0_24_265
*786 FILLER_0_24_27
*787 FILLER_0_24_277
*788 FILLER_0_24_289
*789 FILLER_0_24_29
*790 FILLER_0_24_3
*791 FILLER_0_24_301
*792 FILLER_0_24_307
*793 FILLER_0_24_309
*794 FILLER_0_24_321
*795 FILLER_0_24_333
*796 FILLER_0_24_345
*797 FILLER_0_24_41
*798 FILLER_0_24_53
*799 FILLER_0_24_65
*800 FILLER_0_24_77
*801 FILLER_0_24_83
*802 FILLER_0_24_85
*803 FILLER_0_24_97
*804 FILLER_0_25_105
*805 FILLER_0_25_111
*806 FILLER_0_25_113
*807 FILLER_0_25_125
*808 FILLER_0_25_137
*809 FILLER_0_25_149
*810 FILLER_0_25_15
*811 FILLER_0_25_161
*812 FILLER_0_25_167
*813 FILLER_0_25_169
*814 FILLER_0_25_181
*815 FILLER_0_25_193
*816 FILLER_0_25_205
*817 FILLER_0_25_217
*818 FILLER_0_25_223
*819 FILLER_0_25_225
*820 FILLER_0_25_237
*821 FILLER_0_25_249
*822 FILLER_0_25_261
*823 FILLER_0_25_27
*824 FILLER_0_25_273
*825 FILLER_0_25_279
*826 FILLER_0_25_281
*827 FILLER_0_25_293
*828 FILLER_0_25_3
*829 FILLER_0_25_305
*830 FILLER_0_25_317
*831 FILLER_0_25_329
*832 FILLER_0_25_335
*833 FILLER_0_25_337
*834 FILLER_0_25_349
*835 FILLER_0_25_39
*836 FILLER_0_25_51
*837 FILLER_0_25_55
*838 FILLER_0_25_57
*839 FILLER_0_25_69
*840 FILLER_0_25_81
*841 FILLER_0_25_93
*842 FILLER_0_26_109
*843 FILLER_0_26_121
*844 FILLER_0_26_133
*845 FILLER_0_26_139
*846 FILLER_0_26_141
*847 FILLER_0_26_15
*848 FILLER_0_26_153
*849 FILLER_0_26_165
*850 FILLER_0_26_177
*851 FILLER_0_26_189
*852 FILLER_0_26_195
*853 FILLER_0_26_197
*854 FILLER_0_26_209
*855 FILLER_0_26_221
*856 FILLER_0_26_233
*857 FILLER_0_26_245
*858 FILLER_0_26_251
*859 FILLER_0_26_253
*860 FILLER_0_26_265
*861 FILLER_0_26_27
*862 FILLER_0_26_277
*863 FILLER_0_26_289
*864 FILLER_0_26_29
*865 FILLER_0_26_3
*866 FILLER_0_26_301
*867 FILLER_0_26_307
*868 FILLER_0_26_309
*869 FILLER_0_26_321
*870 FILLER_0_26_333
*871 FILLER_0_26_345
*872 FILLER_0_26_41
*873 FILLER_0_26_53
*874 FILLER_0_26_65
*875 FILLER_0_26_77
*876 FILLER_0_26_83
*877 FILLER_0_26_85
*878 FILLER_0_26_97
*879 FILLER_0_27_105
*880 FILLER_0_27_111
*881 FILLER_0_27_113
*882 FILLER_0_27_125
*883 FILLER_0_27_137
*884 FILLER_0_27_149
*885 FILLER_0_27_15
*886 FILLER_0_27_161
*887 FILLER_0_27_167
*888 FILLER_0_27_169
*889 FILLER_0_27_181
*890 FILLER_0_27_193
*891 FILLER_0_27_205
*892 FILLER_0_27_217
*893 FILLER_0_27_223
*894 FILLER_0_27_225
*895 FILLER_0_27_237
*896 FILLER_0_27_249
*897 FILLER_0_27_261
*898 FILLER_0_27_27
*899 FILLER_0_27_273
*900 FILLER_0_27_279
*901 FILLER_0_27_281
*902 FILLER_0_27_293
*903 FILLER_0_27_3
*904 FILLER_0_27_305
*905 FILLER_0_27_317
*906 FILLER_0_27_329
*907 FILLER_0_27_335
*908 FILLER_0_27_337
*909 FILLER_0_27_349
*910 FILLER_0_27_39
*911 FILLER_0_27_51
*912 FILLER_0_27_55
*913 FILLER_0_27_57
*914 FILLER_0_27_69
*915 FILLER_0_27_81
*916 FILLER_0_27_93
*917 FILLER_0_28_109
*918 FILLER_0_28_121
*919 FILLER_0_28_133
*920 FILLER_0_28_139
*921 FILLER_0_28_141
*922 FILLER_0_28_15
*923 FILLER_0_28_153
*924 FILLER_0_28_165
*925 FILLER_0_28_177
*926 FILLER_0_28_185
*927 FILLER_0_28_191
*928 FILLER_0_28_195
*929 FILLER_0_28_200
*930 FILLER_0_28_228
*931 FILLER_0_28_240
*932 FILLER_0_28_253
*933 FILLER_0_28_265
*934 FILLER_0_28_269
*935 FILLER_0_28_27
*936 FILLER_0_28_289
*937 FILLER_0_28_29
*938 FILLER_0_28_3
*939 FILLER_0_28_301
*940 FILLER_0_28_307
*941 FILLER_0_28_309
*942 FILLER_0_28_321
*943 FILLER_0_28_333
*944 FILLER_0_28_345
*945 FILLER_0_28_41
*946 FILLER_0_28_53
*947 FILLER_0_28_65
*948 FILLER_0_28_77
*949 FILLER_0_28_83
*950 FILLER_0_28_85
*951 FILLER_0_28_97
*952 FILLER_0_29_105
*953 FILLER_0_29_111
*954 FILLER_0_29_113
*955 FILLER_0_29_125
*956 FILLER_0_29_137
*957 FILLER_0_29_149
*958 FILLER_0_29_15
*959 FILLER_0_29_161
*960 FILLER_0_29_167
*961 FILLER_0_29_169
*962 FILLER_0_29_188
*963 FILLER_0_29_222
*964 FILLER_0_29_241
*965 FILLER_0_29_253
*966 FILLER_0_29_257
*967 FILLER_0_29_27
*968 FILLER_0_29_297
*969 FILLER_0_29_3
*970 FILLER_0_29_309
*971 FILLER_0_29_321
*972 FILLER_0_29_333
*973 FILLER_0_29_337
*974 FILLER_0_29_349
*975 FILLER_0_29_39
*976 FILLER_0_29_51
*977 FILLER_0_29_55
*978 FILLER_0_29_57
*979 FILLER_0_29_69
*980 FILLER_0_29_81
*981 FILLER_0_29_93
*982 FILLER_0_2_109
*983 FILLER_0_2_121
*984 FILLER_0_2_133
*985 FILLER_0_2_139
*986 FILLER_0_2_141
*987 FILLER_0_2_15
*988 FILLER_0_2_153
*989 FILLER_0_2_165
*990 FILLER_0_2_177
*991 FILLER_0_2_189
*992 FILLER_0_2_195
*993 FILLER_0_2_197
*994 FILLER_0_2_209
*995 FILLER_0_2_221
*996 FILLER_0_2_233
*997 FILLER_0_2_245
*998 FILLER_0_2_251
*999 FILLER_0_2_253
*1000 FILLER_0_2_265
*1001 FILLER_0_2_27
*1002 FILLER_0_2_277
*1003 FILLER_0_2_289
*1004 FILLER_0_2_29
*1005 FILLER_0_2_3
*1006 FILLER_0_2_301
*1007 FILLER_0_2_307
*1008 FILLER_0_2_309
*1009 FILLER_0_2_321
*1010 FILLER_0_2_333
*1011 FILLER_0_2_345
*1012 FILLER_0_2_41
*1013 FILLER_0_2_53
*1014 FILLER_0_2_65
*1015 FILLER_0_2_77
*1016 FILLER_0_2_83
*1017 FILLER_0_2_85
*1018 FILLER_0_2_97
*1019 FILLER_0_30_109
*1020 FILLER_0_30_121
*1021 FILLER_0_30_133
*1022 FILLER_0_30_139
*1023 FILLER_0_30_141
*1024 FILLER_0_30_15
*1025 FILLER_0_30_153
*1026 FILLER_0_30_175
*1027 FILLER_0_30_200
*1028 FILLER_0_30_208
*1029 FILLER_0_30_213
*1030 FILLER_0_30_223
*1031 FILLER_0_30_243
*1032 FILLER_0_30_251
*1033 FILLER_0_30_269
*1034 FILLER_0_30_27
*1035 FILLER_0_30_275
*1036 FILLER_0_30_279
*1037 FILLER_0_30_283
*1038 FILLER_0_30_29
*1039 FILLER_0_30_3
*1040 FILLER_0_30_303
*1041 FILLER_0_30_307
*1042 FILLER_0_30_309
*1043 FILLER_0_30_321
*1044 FILLER_0_30_333
*1045 FILLER_0_30_345
*1046 FILLER_0_30_41
*1047 FILLER_0_30_53
*1048 FILLER_0_30_65
*1049 FILLER_0_30_77
*1050 FILLER_0_30_83
*1051 FILLER_0_30_85
*1052 FILLER_0_30_97
*1053 FILLER_0_31_105
*1054 FILLER_0_31_111
*1055 FILLER_0_31_113
*1056 FILLER_0_31_125
*1057 FILLER_0_31_137
*1058 FILLER_0_31_145
*1059 FILLER_0_31_15
*1060 FILLER_0_31_164
*1061 FILLER_0_31_169
*1062 FILLER_0_31_175
*1063 FILLER_0_31_195
*1064 FILLER_0_31_207
*1065 FILLER_0_31_219
*1066 FILLER_0_31_223
*1067 FILLER_0_31_251
*1068 FILLER_0_31_263
*1069 FILLER_0_31_27
*1070 FILLER_0_31_275
*1071 FILLER_0_31_279
*1072 FILLER_0_31_281
*1073 FILLER_0_31_3
*1074 FILLER_0_31_325
*1075 FILLER_0_31_333
*1076 FILLER_0_31_337
*1077 FILLER_0_31_349
*1078 FILLER_0_31_39
*1079 FILLER_0_31_51
*1080 FILLER_0_31_55
*1081 FILLER_0_31_57
*1082 FILLER_0_31_69
*1083 FILLER_0_31_81
*1084 FILLER_0_31_93
*1085 FILLER_0_32_109
*1086 FILLER_0_32_121
*1087 FILLER_0_32_133
*1088 FILLER_0_32_139
*1089 FILLER_0_32_141
*1090 FILLER_0_32_15
*1091 FILLER_0_32_168
*1092 FILLER_0_32_180
*1093 FILLER_0_32_188
*1094 FILLER_0_32_197
*1095 FILLER_0_32_209
*1096 FILLER_0_32_221
*1097 FILLER_0_32_229
*1098 FILLER_0_32_251
*1099 FILLER_0_32_257
*1100 FILLER_0_32_269
*1101 FILLER_0_32_27
*1102 FILLER_0_32_281
*1103 FILLER_0_32_29
*1104 FILLER_0_32_3
*1105 FILLER_0_32_303
*1106 FILLER_0_32_307
*1107 FILLER_0_32_309
*1108 FILLER_0_32_321
*1109 FILLER_0_32_333
*1110 FILLER_0_32_345
*1111 FILLER_0_32_41
*1112 FILLER_0_32_53
*1113 FILLER_0_32_65
*1114 FILLER_0_32_77
*1115 FILLER_0_32_83
*1116 FILLER_0_32_85
*1117 FILLER_0_32_97
*1118 FILLER_0_33_105
*1119 FILLER_0_33_111
*1120 FILLER_0_33_113
*1121 FILLER_0_33_125
*1122 FILLER_0_33_137
*1123 FILLER_0_33_145
*1124 FILLER_0_33_15
*1125 FILLER_0_33_162
*1126 FILLER_0_33_169
*1127 FILLER_0_33_183
*1128 FILLER_0_33_217
*1129 FILLER_0_33_223
*1130 FILLER_0_33_225
*1131 FILLER_0_33_231
*1132 FILLER_0_33_238
*1133 FILLER_0_33_27
*1134 FILLER_0_33_272
*1135 FILLER_0_33_276
*1136 FILLER_0_33_281
*1137 FILLER_0_33_299
*1138 FILLER_0_33_3
*1139 FILLER_0_33_311
*1140 FILLER_0_33_323
*1141 FILLER_0_33_335
*1142 FILLER_0_33_337
*1143 FILLER_0_33_349
*1144 FILLER_0_33_39
*1145 FILLER_0_33_51
*1146 FILLER_0_33_55
*1147 FILLER_0_33_57
*1148 FILLER_0_33_69
*1149 FILLER_0_33_81
*1150 FILLER_0_33_93
*1151 FILLER_0_34_109
*1152 FILLER_0_34_121
*1153 FILLER_0_34_133
*1154 FILLER_0_34_139
*1155 FILLER_0_34_141
*1156 FILLER_0_34_15
*1157 FILLER_0_34_152
*1158 FILLER_0_34_164
*1159 FILLER_0_34_170
*1160 FILLER_0_34_195
*1161 FILLER_0_34_208
*1162 FILLER_0_34_218
*1163 FILLER_0_34_251
*1164 FILLER_0_34_253
*1165 FILLER_0_34_265
*1166 FILLER_0_34_27
*1167 FILLER_0_34_29
*1168 FILLER_0_34_296
*1169 FILLER_0_34_3
*1170 FILLER_0_34_309
*1171 FILLER_0_34_321
*1172 FILLER_0_34_333
*1173 FILLER_0_34_345
*1174 FILLER_0_34_41
*1175 FILLER_0_34_53
*1176 FILLER_0_34_65
*1177 FILLER_0_34_77
*1178 FILLER_0_34_83
*1179 FILLER_0_34_85
*1180 FILLER_0_34_97
*1181 FILLER_0_35_105
*1182 FILLER_0_35_111
*1183 FILLER_0_35_113
*1184 FILLER_0_35_125
*1185 FILLER_0_35_137
*1186 FILLER_0_35_149
*1187 FILLER_0_35_15
*1188 FILLER_0_35_161
*1189 FILLER_0_35_167
*1190 FILLER_0_35_169
*1191 FILLER_0_35_173
*1192 FILLER_0_35_194
*1193 FILLER_0_35_225
*1194 FILLER_0_35_254
*1195 FILLER_0_35_266
*1196 FILLER_0_35_27
*1197 FILLER_0_35_274
*1198 FILLER_0_35_297
*1199 FILLER_0_35_3
*1200 FILLER_0_35_309
*1201 FILLER_0_35_329
*1202 FILLER_0_35_335
*1203 FILLER_0_35_337
*1204 FILLER_0_35_349
*1205 FILLER_0_35_39
*1206 FILLER_0_35_51
*1207 FILLER_0_35_55
*1208 FILLER_0_35_57
*1209 FILLER_0_35_69
*1210 FILLER_0_35_81
*1211 FILLER_0_35_93
*1212 FILLER_0_36_109
*1213 FILLER_0_36_121
*1214 FILLER_0_36_133
*1215 FILLER_0_36_139
*1216 FILLER_0_36_141
*1217 FILLER_0_36_15
*1218 FILLER_0_36_153
*1219 FILLER_0_36_165
*1220 FILLER_0_36_177
*1221 FILLER_0_36_186
*1222 FILLER_0_36_197
*1223 FILLER_0_36_245
*1224 FILLER_0_36_251
*1225 FILLER_0_36_27
*1226 FILLER_0_36_273
*1227 FILLER_0_36_29
*1228 FILLER_0_36_3
*1229 FILLER_0_36_303
*1230 FILLER_0_36_341
*1231 FILLER_0_36_349
*1232 FILLER_0_36_41
*1233 FILLER_0_36_53
*1234 FILLER_0_36_65
*1235 FILLER_0_36_77
*1236 FILLER_0_36_83
*1237 FILLER_0_36_85
*1238 FILLER_0_36_97
*1239 FILLER_0_37_105
*1240 FILLER_0_37_111
*1241 FILLER_0_37_113
*1242 FILLER_0_37_125
*1243 FILLER_0_37_137
*1244 FILLER_0_37_149
*1245 FILLER_0_37_15
*1246 FILLER_0_37_161
*1247 FILLER_0_37_167
*1248 FILLER_0_37_169
*1249 FILLER_0_37_225
*1250 FILLER_0_37_237
*1251 FILLER_0_37_241
*1252 FILLER_0_37_27
*1253 FILLER_0_37_271
*1254 FILLER_0_37_290
*1255 FILLER_0_37_3
*1256 FILLER_0_37_310
*1257 FILLER_0_37_318
*1258 FILLER_0_37_325
*1259 FILLER_0_37_333
*1260 FILLER_0_37_337
*1261 FILLER_0_37_349
*1262 FILLER_0_37_39
*1263 FILLER_0_37_51
*1264 FILLER_0_37_55
*1265 FILLER_0_37_57
*1266 FILLER_0_37_69
*1267 FILLER_0_37_81
*1268 FILLER_0_37_93
*1269 FILLER_0_38_104
*1270 FILLER_0_38_110
*1271 FILLER_0_38_116
*1272 FILLER_0_38_122
*1273 FILLER_0_38_128
*1274 FILLER_0_38_134
*1275 FILLER_0_38_141
*1276 FILLER_0_38_146
*1277 FILLER_0_38_15
*1278 FILLER_0_38_152
*1279 FILLER_0_38_158
*1280 FILLER_0_38_164
*1281 FILLER_0_38_172
*1282 FILLER_0_38_176
*1283 FILLER_0_38_182
*1284 FILLER_0_38_192
*1285 FILLER_0_38_201
*1286 FILLER_0_38_215
*1287 FILLER_0_38_223
*1288 FILLER_0_38_225
*1289 FILLER_0_38_237
*1290 FILLER_0_38_249
*1291 FILLER_0_38_27
*1292 FILLER_0_38_279
*1293 FILLER_0_38_29
*1294 FILLER_0_38_3
*1295 FILLER_0_38_315
*1296 FILLER_0_38_327
*1297 FILLER_0_38_335
*1298 FILLER_0_38_337
*1299 FILLER_0_38_349
*1300 FILLER_0_38_41
*1301 FILLER_0_38_53
*1302 FILLER_0_38_57
*1303 FILLER_0_38_68
*1304 FILLER_0_38_74
*1305 FILLER_0_38_80
*1306 FILLER_0_38_88
*1307 FILLER_0_38_92
*1308 FILLER_0_38_98
*1309 FILLER_0_3_105
*1310 FILLER_0_3_111
*1311 FILLER_0_3_113
*1312 FILLER_0_3_125
*1313 FILLER_0_3_137
*1314 FILLER_0_3_149
*1315 FILLER_0_3_15
*1316 FILLER_0_3_161
*1317 FILLER_0_3_167
*1318 FILLER_0_3_169
*1319 FILLER_0_3_181
*1320 FILLER_0_3_193
*1321 FILLER_0_3_205
*1322 FILLER_0_3_217
*1323 FILLER_0_3_223
*1324 FILLER_0_3_225
*1325 FILLER_0_3_237
*1326 FILLER_0_3_249
*1327 FILLER_0_3_261
*1328 FILLER_0_3_27
*1329 FILLER_0_3_273
*1330 FILLER_0_3_279
*1331 FILLER_0_3_281
*1332 FILLER_0_3_293
*1333 FILLER_0_3_3
*1334 FILLER_0_3_305
*1335 FILLER_0_3_317
*1336 FILLER_0_3_329
*1337 FILLER_0_3_335
*1338 FILLER_0_3_337
*1339 FILLER_0_3_349
*1340 FILLER_0_3_39
*1341 FILLER_0_3_51
*1342 FILLER_0_3_55
*1343 FILLER_0_3_57
*1344 FILLER_0_3_69
*1345 FILLER_0_3_81
*1346 FILLER_0_3_93
*1347 FILLER_0_4_109
*1348 FILLER_0_4_121
*1349 FILLER_0_4_133
*1350 FILLER_0_4_139
*1351 FILLER_0_4_141
*1352 FILLER_0_4_15
*1353 FILLER_0_4_153
*1354 FILLER_0_4_165
*1355 FILLER_0_4_177
*1356 FILLER_0_4_189
*1357 FILLER_0_4_195
*1358 FILLER_0_4_197
*1359 FILLER_0_4_209
*1360 FILLER_0_4_221
*1361 FILLER_0_4_233
*1362 FILLER_0_4_245
*1363 FILLER_0_4_251
*1364 FILLER_0_4_253
*1365 FILLER_0_4_265
*1366 FILLER_0_4_27
*1367 FILLER_0_4_277
*1368 FILLER_0_4_289
*1369 FILLER_0_4_29
*1370 FILLER_0_4_3
*1371 FILLER_0_4_301
*1372 FILLER_0_4_307
*1373 FILLER_0_4_309
*1374 FILLER_0_4_321
*1375 FILLER_0_4_333
*1376 FILLER_0_4_345
*1377 FILLER_0_4_41
*1378 FILLER_0_4_53
*1379 FILLER_0_4_65
*1380 FILLER_0_4_77
*1381 FILLER_0_4_83
*1382 FILLER_0_4_85
*1383 FILLER_0_4_97
*1384 FILLER_0_5_105
*1385 FILLER_0_5_111
*1386 FILLER_0_5_113
*1387 FILLER_0_5_125
*1388 FILLER_0_5_137
*1389 FILLER_0_5_149
*1390 FILLER_0_5_15
*1391 FILLER_0_5_161
*1392 FILLER_0_5_167
*1393 FILLER_0_5_169
*1394 FILLER_0_5_181
*1395 FILLER_0_5_193
*1396 FILLER_0_5_205
*1397 FILLER_0_5_217
*1398 FILLER_0_5_223
*1399 FILLER_0_5_225
*1400 FILLER_0_5_237
*1401 FILLER_0_5_249
*1402 FILLER_0_5_261
*1403 FILLER_0_5_27
*1404 FILLER_0_5_273
*1405 FILLER_0_5_279
*1406 FILLER_0_5_281
*1407 FILLER_0_5_293
*1408 FILLER_0_5_3
*1409 FILLER_0_5_305
*1410 FILLER_0_5_317
*1411 FILLER_0_5_329
*1412 FILLER_0_5_335
*1413 FILLER_0_5_337
*1414 FILLER_0_5_349
*1415 FILLER_0_5_39
*1416 FILLER_0_5_51
*1417 FILLER_0_5_55
*1418 FILLER_0_5_57
*1419 FILLER_0_5_69
*1420 FILLER_0_5_81
*1421 FILLER_0_5_93
*1422 FILLER_0_6_109
*1423 FILLER_0_6_121
*1424 FILLER_0_6_133
*1425 FILLER_0_6_139
*1426 FILLER_0_6_141
*1427 FILLER_0_6_15
*1428 FILLER_0_6_153
*1429 FILLER_0_6_165
*1430 FILLER_0_6_177
*1431 FILLER_0_6_189
*1432 FILLER_0_6_195
*1433 FILLER_0_6_197
*1434 FILLER_0_6_209
*1435 FILLER_0_6_221
*1436 FILLER_0_6_233
*1437 FILLER_0_6_245
*1438 FILLER_0_6_251
*1439 FILLER_0_6_253
*1440 FILLER_0_6_265
*1441 FILLER_0_6_27
*1442 FILLER_0_6_277
*1443 FILLER_0_6_289
*1444 FILLER_0_6_29
*1445 FILLER_0_6_3
*1446 FILLER_0_6_301
*1447 FILLER_0_6_307
*1448 FILLER_0_6_309
*1449 FILLER_0_6_321
*1450 FILLER_0_6_333
*1451 FILLER_0_6_345
*1452 FILLER_0_6_41
*1453 FILLER_0_6_53
*1454 FILLER_0_6_65
*1455 FILLER_0_6_77
*1456 FILLER_0_6_83
*1457 FILLER_0_6_85
*1458 FILLER_0_6_97
*1459 FILLER_0_7_105
*1460 FILLER_0_7_111
*1461 FILLER_0_7_113
*1462 FILLER_0_7_125
*1463 FILLER_0_7_137
*1464 FILLER_0_7_149
*1465 FILLER_0_7_15
*1466 FILLER_0_7_161
*1467 FILLER_0_7_167
*1468 FILLER_0_7_169
*1469 FILLER_0_7_181
*1470 FILLER_0_7_193
*1471 FILLER_0_7_205
*1472 FILLER_0_7_217
*1473 FILLER_0_7_223
*1474 FILLER_0_7_225
*1475 FILLER_0_7_237
*1476 FILLER_0_7_249
*1477 FILLER_0_7_261
*1478 FILLER_0_7_27
*1479 FILLER_0_7_273
*1480 FILLER_0_7_279
*1481 FILLER_0_7_281
*1482 FILLER_0_7_293
*1483 FILLER_0_7_3
*1484 FILLER_0_7_305
*1485 FILLER_0_7_317
*1486 FILLER_0_7_329
*1487 FILLER_0_7_335
*1488 FILLER_0_7_337
*1489 FILLER_0_7_349
*1490 FILLER_0_7_39