*SPEF "ieee 1481-1999"
*DESIGN "tt_um_perceptron_connorguzi"
*DATE "11:11:11 Fri 11 11, 1111"
*VENDOR "OpenRCX"
*PROGRAM "Parallel Extraction"
*VERSION "1.0"
*DESIGN_FLOW "NAME_SCOPE LOCAL" "PIN_CAP NONE"
*DIVIDER /
*DELIMITER :
*BUS_DELIMITER []
*T_UNIT 1 NS
*C_UNIT 1 PF
*R_UNIT 1 OHM
*L_UNIT 1 HENRY

*NAME_MAP
*3 clk
*4 ena
*5 rst_n
*6 ui_in[0]
*7 ui_in[1]
*8 ui_in[2]
*9 ui_in[3]
*10 ui_in[4]
*11 ui_in[5]
*12 ui_in[6]
*13 ui_in[7]
*14 uio_in[0]
*15 uio_in[1]
*16 uio_in[2]
*17 uio_in[3]
*18 uio_in[4]
*19 uio_in[5]
*20 uio_in[6]
*21 uio_in[7]
*22 net16
*23 net17
*24 net18
*25 net19
*26 net20
*27 net21
*28 net22
*29 net23
*30 net8
*31 net9
*32 net10
*33 net11
*34 net12
*35 net13
*36 net14
*37 net15
*38 uo_out[0]
*39 uo_out[1]
*40 uo_out[2]
*41 uo_out[3]
*42 uo_out[4]
*43 uo_out[5]
*44 uo_out[6]
*45 uo_out[7]
*46 _000_
*47 _001_
*48 _002_
*49 _003_
*50 _004_
*51 _005_
*52 _006_
*53 _007_
*54 _008_
*55 _009_
*56 _010_
*57 _011_
*58 _012_
*59 _013_
*60 _014_
*61 _015_
*62 _016_
*63 _017_
*64 _018_
*65 _019_
*66 _020_
*67 _021_
*68 _022_
*69 _023_
*70 _024_
*71 _025_
*72 _026_
*73 _027_
*74 _028_
*75 _029_
*76 _030_
*77 _031_
*78 _032_
*79 _033_
*80 _034_
*81 _035_
*82 _036_
*83 _037_
*84 _038_
*85 _039_
*86 _040_
*87 _041_
*88 _042_
*89 _043_
*90 _044_
*91 _045_
*92 _046_
*93 net1
*94 net2
*95 net3
*96 net4
*97 net5
*98 net6
*99 net7
*100 FILLER_0_0_109
*101 FILLER_0_0_113
*102 FILLER_0_0_125
*103 FILLER_0_0_137
*104 FILLER_0_0_141
*105 FILLER_0_0_15
*106 FILLER_0_0_153
*107 FILLER_0_0_165
*108 FILLER_0_0_169
*109 FILLER_0_0_181
*110 FILLER_0_0_193
*111 FILLER_0_0_197
*112 FILLER_0_0_209
*113 FILLER_0_0_221
*114 FILLER_0_0_225
*115 FILLER_0_0_237
*116 FILLER_0_0_249
*117 FILLER_0_0_253
*118 FILLER_0_0_265
*119 FILLER_0_0_27
*120 FILLER_0_0_277
*121 FILLER_0_0_281
*122 FILLER_0_0_29
*123 FILLER_0_0_293
*124 FILLER_0_0_3
*125 FILLER_0_0_305
*126 FILLER_0_0_309
*127 FILLER_0_0_321
*128 FILLER_0_0_333
*129 FILLER_0_0_337
*130 FILLER_0_0_349
*131 FILLER_0_0_41
*132 FILLER_0_0_53
*133 FILLER_0_0_57
*134 FILLER_0_0_69
*135 FILLER_0_0_81
*136 FILLER_0_0_85
*137 FILLER_0_0_97
*138 FILLER_0_10_109
*139 FILLER_0_10_121
*140 FILLER_0_10_133
*141 FILLER_0_10_139
*142 FILLER_0_10_141
*143 FILLER_0_10_15
*144 FILLER_0_10_153
*145 FILLER_0_10_165
*146 FILLER_0_10_177
*147 FILLER_0_10_189
*148 FILLER_0_10_195
*149 FILLER_0_10_197
*150 FILLER_0_10_209
*151 FILLER_0_10_221
*152 FILLER_0_10_233
*153 FILLER_0_10_245
*154 FILLER_0_10_251
*155 FILLER_0_10_253
*156 FILLER_0_10_265
*157 FILLER_0_10_27
*158 FILLER_0_10_277
*159 FILLER_0_10_289
*160 FILLER_0_10_29
*161 FILLER_0_10_3
*162 FILLER_0_10_301
*163 FILLER_0_10_307
*164 FILLER_0_10_309
*165 FILLER_0_10_321
*166 FILLER_0_10_333
*167 FILLER_0_10_345
*168 FILLER_0_10_41
*169 FILLER_0_10_53
*170 FILLER_0_10_65
*171 FILLER_0_10_77
*172 FILLER_0_10_83
*173 FILLER_0_10_85
*174 FILLER_0_10_97
*175 FILLER_0_11_105
*176 FILLER_0_11_111
*177 FILLER_0_11_113
*178 FILLER_0_11_125
*179 FILLER_0_11_137
*180 FILLER_0_11_149
*181 FILLER_0_11_15
*182 FILLER_0_11_161
*183 FILLER_0_11_167
*184 FILLER_0_11_169
*185 FILLER_0_11_181
*186 FILLER_0_11_193
*187 FILLER_0_11_205
*188 FILLER_0_11_217
*189 FILLER_0_11_223
*190 FILLER_0_11_225
*191 FILLER_0_11_237
*192 FILLER_0_11_249
*193 FILLER_0_11_261
*194 FILLER_0_11_27
*195 FILLER_0_11_273
*196 FILLER_0_11_279
*197 FILLER_0_11_281
*198 FILLER_0_11_293
*199 FILLER_0_11_3
*200 FILLER_0_11_305
*201 FILLER_0_11_317
*202 FILLER_0_11_329
*203 FILLER_0_11_335
*204 FILLER_0_11_337
*205 FILLER_0_11_349
*206 FILLER_0_11_39
*207 FILLER_0_11_51
*208 FILLER_0_11_55
*209 FILLER_0_11_57
*210 FILLER_0_11_69
*211 FILLER_0_11_81
*212 FILLER_0_11_93
*213 FILLER_0_12_109
*214 FILLER_0_12_121
*215 FILLER_0_12_133
*216 FILLER_0_12_139
*217 FILLER_0_12_141
*218 FILLER_0_12_15
*219 FILLER_0_12_153
*220 FILLER_0_12_165
*221 FILLER_0_12_177
*222 FILLER_0_12_189
*223 FILLER_0_12_195
*224 FILLER_0_12_197
*225 FILLER_0_12_209
*226 FILLER_0_12_221
*227 FILLER_0_12_233
*228 FILLER_0_12_245
*229 FILLER_0_12_251
*230 FILLER_0_12_253
*231 FILLER_0_12_265
*232 FILLER_0_12_27
*233 FILLER_0_12_277
*234 FILLER_0_12_289
*235 FILLER_0_12_29
*236 FILLER_0_12_3
*237 FILLER_0_12_301
*238 FILLER_0_12_307
*239 FILLER_0_12_309
*240 FILLER_0_12_321
*241 FILLER_0_12_333
*242 FILLER_0_12_345
*243 FILLER_0_12_41
*244 FILLER_0_12_53
*245 FILLER_0_12_65
*246 FILLER_0_12_77
*247 FILLER_0_12_83
*248 FILLER_0_12_85
*249 FILLER_0_12_97
*250 FILLER_0_13_105
*251 FILLER_0_13_111
*252 FILLER_0_13_113
*253 FILLER_0_13_125
*254 FILLER_0_13_137
*255 FILLER_0_13_149
*256 FILLER_0_13_15
*257 FILLER_0_13_161
*258 FILLER_0_13_167
*259 FILLER_0_13_169
*260 FILLER_0_13_181
*261 FILLER_0_13_193
*262 FILLER_0_13_205
*263 FILLER_0_13_217
*264 FILLER_0_13_223
*265 FILLER_0_13_225
*266 FILLER_0_13_237
*267 FILLER_0_13_249
*268 FILLER_0_13_261
*269 FILLER_0_13_27
*270 FILLER_0_13_273
*271 FILLER_0_13_279
*272 FILLER_0_13_281
*273 FILLER_0_13_293
*274 FILLER_0_13_3
*275 FILLER_0_13_305
*276 FILLER_0_13_317
*277 FILLER_0_13_329
*278 FILLER_0_13_335
*279 FILLER_0_13_337
*280 FILLER_0_13_349
*281 FILLER_0_13_39
*282 FILLER_0_13_51
*283 FILLER_0_13_55
*284 FILLER_0_13_57
*285 FILLER_0_13_69
*286 FILLER_0_13_81
*287 FILLER_0_13_93
*288 FILLER_0_14_109
*289 FILLER_0_14_121
*290 FILLER_0_14_133
*291 FILLER_0_14_139
*292 FILLER_0_14_141
*293 FILLER_0_14_15
*294 FILLER_0_14_153
*295 FILLER_0_14_165
*296 FILLER_0_14_177
*297 FILLER_0_14_189
*298 FILLER_0_14_195
*299 FILLER_0_14_197
*300 FILLER_0_14_209
*301 FILLER_0_14_221
*302 FILLER_0_14_233
*303 FILLER_0_14_245
*304 FILLER_0_14_251
*305 FILLER_0_14_253
*306 FILLER_0_14_265
*307 FILLER_0_14_27
*308 FILLER_0_14_277
*309 FILLER_0_14_289
*310 FILLER_0_14_29
*311 FILLER_0_14_3
*312 FILLER_0_14_301
*313 FILLER_0_14_307
*314 FILLER_0_14_309
*315 FILLER_0_14_321
*316 FILLER_0_14_333
*317 FILLER_0_14_345
*318 FILLER_0_14_41
*319 FILLER_0_14_53
*320 FILLER_0_14_65
*321 FILLER_0_14_77
*322 FILLER_0_14_83
*323 FILLER_0_14_85
*324 FILLER_0_14_97
*325 FILLER_0_15_105
*326 FILLER_0_15_111
*327 FILLER_0_15_113
*328 FILLER_0_15_125
*329 FILLER_0_15_137
*330 FILLER_0_15_149
*331 FILLER_0_15_15
*332 FILLER_0_15_161
*333 FILLER_0_15_167
*334 FILLER_0_15_169
*335 FILLER_0_15_181
*336 FILLER_0_15_193
*337 FILLER_0_15_205
*338 FILLER_0_15_217
*339 FILLER_0_15_223
*340 FILLER_0_15_225
*341 FILLER_0_15_237
*342 FILLER_0_15_249
*343 FILLER_0_15_261
*344 FILLER_0_15_27
*345 FILLER_0_15_273
*346 FILLER_0_15_279
*347 FILLER_0_15_281
*348 FILLER_0_15_293
*349 FILLER_0_15_3
*350 FILLER_0_15_305
*351 FILLER_0_15_317
*352 FILLER_0_15_329
*353 FILLER_0_15_335
*354 FILLER_0_15_337
*355 FILLER_0_15_349
*356 FILLER_0_15_39
*357 FILLER_0_15_51
*358 FILLER_0_15_55
*359 FILLER_0_15_57
*360 FILLER_0_15_69
*361 FILLER_0_15_81
*362 FILLER_0_15_93
*363 FILLER_0_16_109
*364 FILLER_0_16_121
*365 FILLER_0_16_133
*366 FILLER_0_16_139
*367 FILLER_0_16_141
*368 FILLER_0_16_15
*369 FILLER_0_16_153
*370 FILLER_0_16_165
*371 FILLER_0_16_177
*372 FILLER_0_16_189
*373 FILLER_0_16_195
*374 FILLER_0_16_197
*375 FILLER_0_16_209
*376 FILLER_0_16_221
*377 FILLER_0_16_233
*378 FILLER_0_16_245
*379 FILLER_0_16_251
*380 FILLER_0_16_253
*381 FILLER_0_16_265
*382 FILLER_0_16_27
*383 FILLER_0_16_277
*384 FILLER_0_16_289
*385 FILLER_0_16_29
*386 FILLER_0_16_3
*387 FILLER_0_16_301
*388 FILLER_0_16_307
*389 FILLER_0_16_309
*390 FILLER_0_16_321
*391 FILLER_0_16_333
*392 FILLER_0_16_345
*393 FILLER_0_16_41
*394 FILLER_0_16_53
*395 FILLER_0_16_65
*396 FILLER_0_16_77
*397 FILLER_0_16_83
*398 FILLER_0_16_85
*399 FILLER_0_16_97
*400 FILLER_0_17_105
*401 FILLER_0_17_111
*402 FILLER_0_17_113
*403 FILLER_0_17_125
*404 FILLER_0_17_137
*405 FILLER_0_17_149
*406 FILLER_0_17_15
*407 FILLER_0_17_161
*408 FILLER_0_17_167
*409 FILLER_0_17_169
*410 FILLER_0_17_181
*411 FILLER_0_17_193
*412 FILLER_0_17_205
*413 FILLER_0_17_217
*414 FILLER_0_17_223
*415 FILLER_0_17_225
*416 FILLER_0_17_237
*417 FILLER_0_17_249
*418 FILLER_0_17_261
*419 FILLER_0_17_27
*420 FILLER_0_17_273
*421 FILLER_0_17_279
*422 FILLER_0_17_281
*423 FILLER_0_17_293
*424 FILLER_0_17_3
*425 FILLER_0_17_305
*426 FILLER_0_17_317
*427 FILLER_0_17_329
*428 FILLER_0_17_335
*429 FILLER_0_17_337
*430 FILLER_0_17_349
*431 FILLER_0_17_39
*432 FILLER_0_17_51
*433 FILLER_0_17_55
*434 FILLER_0_17_57
*435 FILLER_0_17_69
*436 FILLER_0_17_81
*437 FILLER_0_17_93
*438 FILLER_0_18_109
*439 FILLER_0_18_121
*440 FILLER_0_18_133
*441 FILLER_0_18_139
*442 FILLER_0_18_141
*443 FILLER_0_18_15
*444 FILLER_0_18_153
*445 FILLER_0_18_165
*446 FILLER_0_18_177
*447 FILLER_0_18_189
*448 FILLER_0_18_195
*449 FILLER_0_18_197
*450 FILLER_0_18_209
*451 FILLER_0_18_221
*452 FILLER_0_18_233
*453 FILLER_0_18_245
*454 FILLER_0_18_251
*455 FILLER_0_18_253
*456 FILLER_0_18_265
*457 FILLER_0_18_27
*458 FILLER_0_18_277
*459 FILLER_0_18_289
*460 FILLER_0_18_29
*461 FILLER_0_18_3
*462 FILLER_0_18_301
*463 FILLER_0_18_307
*464 FILLER_0_18_309
*465 FILLER_0_18_321
*466 FILLER_0_18_333
*467 FILLER_0_18_345
*468 FILLER_0_18_41
*469 FILLER_0_18_53
*470 FILLER_0_18_65
*471 FILLER_0_18_77
*472 FILLER_0_18_83
*473 FILLER_0_18_85
*474 FILLER_0_18_97
*475 FILLER_0_19_105
*476 FILLER_0_19_111
*477 FILLER_0_19_113
*478 FILLER_0_19_125
*479 FILLER_0_19_137
*480 FILLER_0_19_149
*481 FILLER_0_19_15
*482 FILLER_0_19_161
*483 FILLER_0_19_167
*484 FILLER_0_19_169
*485 FILLER_0_19_181
*486 FILLER_0_19_193
*487 FILLER_0_19_205
*488 FILLER_0_19_217
*489 FILLER_0_19_223
*490 FILLER_0_19_225
*491 FILLER_0_19_237
*492 FILLER_0_19_249
*493 FILLER_0_19_261
*494 FILLER_0_19_27
*495 FILLER_0_19_273
*496 FILLER_0_19_279
*497 FILLER_0_19_281
*498 FILLER_0_19_293
*499 FILLER_0_19_3
*500 FILLER_0_19_305
*501 FILLER_0_19_317
*502 FILLER_0_19_329
*503 FILLER_0_19_335
*504 FILLER_0_19_337
*505 FILLER_0_19_349
*506 FILLER_0_19_39
*507 FILLER_0_19_51
*508 FILLER_0_19_55
*509 FILLER_0_19_57
*510 FILLER_0_19_69
*511 FILLER_0_19_81
*512 FILLER_0_19_93
*513 FILLER_0_1_105
*514 FILLER_0_1_111
*515 FILLER_0_1_113
*516 FILLER_0_1_125
*517 FILLER_0_1_137
*518 FILLER_0_1_149
*519 FILLER_0_1_15
*520 FILLER_0_1_161
*521 FILLER_0_1_167
*522 FILLER_0_1_169
*523 FILLER_0_1_181
*524 FILLER_0_1_193
*525 FILLER_0_1_205
*526 FILLER_0_1_217
*527 FILLER_0_1_223
*528 FILLER_0_1_225
*529 FILLER_0_1_237
*530 FILLER_0_1_249
*531 FILLER_0_1_261
*532 FILLER_0_1_27
*533 FILLER_0_1_273
*534 FILLER_0_1_279
*535 FILLER_0_1_281
*536 FILLER_0_1_293
*537 FILLER_0_1_3
*538 FILLER_0_1_305
*539 FILLER_0_1_317
*540 FILLER_0_1_329
*541 FILLER_0_1_335
*542 FILLER_0_1_337
*543 FILLER_0_1_349
*544 FILLER_0_1_39
*545 FILLER_0_1_51
*546 FILLER_0_1_55
*547 FILLER_0_1_57
*548 FILLER_0_1_69
*549 FILLER_0_1_81
*550 FILLER_0_1_93
*551 FILLER_0_20_109
*552 FILLER_0_20_121
*553 FILLER_0_20_133
*554 FILLER_0_20_139
*555 FILLER_0_20_141
*556 FILLER_0_20_15
*557 FILLER_0_20_153
*558 FILLER_0_20_165
*559 FILLER_0_20_177
*560 FILLER_0_20_189
*561 FILLER_0_20_195
*562 FILLER_0_20_197
*563 FILLER_0_20_209
*564 FILLER_0_20_221
*565 FILLER_0_20_233
*566 FILLER_0_20_245
*567 FILLER_0_20_251
*568 FILLER_0_20_253
*569 FILLER_0_20_265
*570 FILLER_0_20_27
*571 FILLER_0_20_277
*572 FILLER_0_20_289
*573 FILLER_0_20_29
*574 FILLER_0_20_3
*575 FILLER_0_20_301
*576 FILLER_0_20_307
*577 FILLER_0_20_309
*578 FILLER_0_20_321
*579 FILLER_0_20_333
*580 FILLER_0_20_345
*581 FILLER_0_20_41
*582 FILLER_0_20_53
*583 FILLER_0_20_65
*584 FILLER_0_20_77
*585 FILLER_0_20_83
*586 FILLER_0_20_85
*587 FILLER_0_20_97
*588 FILLER_0_21_105
*589 FILLER_0_21_111
*590 FILLER_0_21_113
*591 FILLER_0_21_125
*592 FILLER_0_21_137
*593 FILLER_0_21_149
*594 FILLER_0_21_15
*595 FILLER_0_21_161
*596 FILLER_0_21_167
*597 FILLER_0_21_169
*598 FILLER_0_21_181
*599 FILLER_0_21_193
*600 FILLER_0_21_205
*601 FILLER_0_21_217
*602 FILLER_0_21_223
*603 FILLER_0_21_225
*604 FILLER_0_21_237
*605 FILLER_0_21_249
*606 FILLER_0_21_261
*607 FILLER_0_21_27
*608 FILLER_0_21_273
*609 FILLER_0_21_279
*610 FILLER_0_21_281
*611 FILLER_0_21_293
*612 FILLER_0_21_3
*613 FILLER_0_21_305
*614 FILLER_0_21_317
*615 FILLER_0_21_329
*616 FILLER_0_21_335
*617 FILLER_0_21_337
*618 FILLER_0_21_349
*619 FILLER_0_21_39
*620 FILLER_0_21_51
*621 FILLER_0_21_55
*622 FILLER_0_21_57
*623 FILLER_0_21_69
*624 FILLER_0_21_81
*625 FILLER_0_21_93
*626 FILLER_0_22_109
*627 FILLER_0_22_121
*628 FILLER_0_22_133
*629 FILLER_0_22_139
*630 FILLER_0_22_141
*631 FILLER_0_22_15
*632 FILLER_0_22_153
*633 FILLER_0_22_165
*634 FILLER_0_22_177
*635 FILLER_0_22_189
*636 FILLER_0_22_195
*637 FILLER_0_22_197
*638 FILLER_0_22_209
*639 FILLER_0_22_221
*640 FILLER_0_22_233
*641 FILLER_0_22_245
*642 FILLER_0_22_251
*643 FILLER_0_22_253
*644 FILLER_0_22_265
*645 FILLER_0_22_27
*646 FILLER_0_22_277
*647 FILLER_0_22_289
*648 FILLER_0_22_29
*649 FILLER_0_22_3
*650 FILLER_0_22_301
*651 FILLER_0_22_307
*652 FILLER_0_22_309
*653 FILLER_0_22_321
*654 FILLER_0_22_333
*655 FILLER_0_22_345
*656 FILLER_0_22_41
*657 FILLER_0_22_53
*658 FILLER_0_22_65
*659 FILLER_0_22_77
*660 FILLER_0_22_83
*661 FILLER_0_22_85
*662 FILLER_0_22_97
*663 FILLER_0_23_105
*664 FILLER_0_23_111
*665 FILLER_0_23_113
*666 FILLER_0_23_125
*667 FILLER_0_23_137
*668 FILLER_0_23_149
*669 FILLER_0_23_15
*670 FILLER_0_23_161
*671 FILLER_0_23_167
*672 FILLER_0_23_169
*673 FILLER_0_23_181
*674 FILLER_0_23_193
*675 FILLER_0_23_205
*676 FILLER_0_23_217
*677 FILLER_0_23_223
*678 FILLER_0_23_225
*679 FILLER_0_23_237
*680 FILLER_0_23_249
*681 FILLER_0_23_261
*682 FILLER_0_23_27
*683 FILLER_0_23_273
*684 FILLER_0_23_279
*685 FILLER_0_23_281
*686 FILLER_0_23_293
*687 FILLER_0_23_3
*688 FILLER_0_23_305
*689 FILLER_0_23_317
*690 FILLER_0_23_329
*691 FILLER_0_23_335
*692 FILLER_0_23_337
*693 FILLER_0_23_349
*694 FILLER_0_23_39
*695 FILLER_0_23_51
*696 FILLER_0_23_55
*697 FILLER_0_23_57
*698 FILLER_0_23_69
*699 FILLER_0_23_81
*700 FILLER_0_23_93
*701 FILLER_0_24_109
*702 FILLER_0_24_121
*703 FILLER_0_24_133
*704 FILLER_0_24_139
*705 FILLER_0_24_141
*706 FILLER_0_24_15
*707 FILLER_0_24_153
*708 FILLER_0_24_165
*709 FILLER_0_24_177
*710 FILLER_0_24_189
*711 FILLER_0_24_195
*712 FILLER_0_24_197
*713 FILLER_0_24_209
*714 FILLER_0_24_221
*715 FILLER_0_24_233
*716 FILLER_0_24_245
*717 FILLER_0_24_251
*718 FILLER_0_24_253
*719 FILLER_0_24_265
*720 FILLER_0_24_27
*721 FILLER_0_24_277
*722 FILLER_0_24_289
*723 FILLER_0_24_29
*724 FILLER_0_24_3
*725 FILLER_0_24_301
*726 FILLER_0_24_307
*727 FILLER_0_24_309
*728 FILLER_0_24_321
*729 FILLER_0_24_333
*730 FILLER_0_24_345
*731 FILLER_0_24_41
*732 FILLER_0_24_53
*733 FILLER_0_24_65
*734 FILLER_0_24_77
*735 FILLER_0_24_83
*736 FILLER_0_24_85
*737 FILLER_0_24_97
*738 FILLER_0_25_105
*739 FILLER_0_25_111
*740 FILLER_0_25_113
*741 FILLER_0_25_125
*742 FILLER_0_25_137
*743 FILLER_0_25_149
*744 FILLER_0_25_15
*745 FILLER_0_25_161
*746 FILLER_0_25_167
*747 FILLER_0_25_169
*748 FILLER_0_25_181
*749 FILLER_0_25_193
*750 FILLER_0_25_205
*751 FILLER_0_25_217
*752 FILLER_0_25_223
*753 FILLER_0_25_225
*754 FILLER_0_25_237
*755 FILLER_0_25_249
*756 FILLER_0_25_261
*757 FILLER_0_25_27
*758 FILLER_0_25_273
*759 FILLER_0_25_279
*760 FILLER_0_25_281
*761 FILLER_0_25_293
*762 FILLER_0_25_3
*763 FILLER_0_25_305
*764 FILLER_0_25_317
*765 FILLER_0_25_329
*766 FILLER_0_25_335
*767 FILLER_0_25_337
*768 FILLER_0_25_349
*769 FILLER_0_25_39
*770 FILLER_0_25_51
*771 FILLER_0_25_55
*772 FILLER_0_25_57
*773 FILLER_0_25_69
*774 FILLER_0_25_81
*775 FILLER_0_25_93
*776 FILLER_0_26_109
*777 FILLER_0_26_121
*778 FILLER_0_26_133
*779 FILLER_0_26_139
*780 FILLER_0_26_141
*781 FILLER_0_26_15
*782 FILLER_0_26_153
*783 FILLER_0_26_165
*784 FILLER_0_26_177
*785 FILLER_0_26_189
*786 FILLER_0_26_195
*787 FILLER_0_26_197
*788 FILLER_0_26_209
*789 FILLER_0_26_221
*790 FILLER_0_26_233
*791 FILLER_0_26_245
*792 FILLER_0_26_251
*793 FILLER_0_26_253
*794 FILLER_0_26_265
*795 FILLER_0_26_27
*796 FILLER_0_26_277
*797 FILLER_0_26_289
*798 FILLER_0_26_29
*799 FILLER_0_26_3
*800 FILLER_0_26_301
*801 FILLER_0_26_307
*802 FILLER_0_26_309
*803 FILLER_0_26_321
*804 FILLER_0_26_333
*805 FILLER_0_26_345
*806 FILLER_0_26_41
*807 FILLER_0_26_53
*808 FILLER_0_26_65
*809 FILLER_0_26_77
*810 FILLER_0_26_83
*811 FILLER_0_26_85
*812 FILLER_0_26_97
*813 FILLER_0_27_105
*814 FILLER_0_27_111
*815 FILLER_0_27_113
*816 FILLER_0_27_125
*817 FILLER_0_27_137
*818 FILLER_0_27_149
*819 FILLER_0_27_15
*820 FILLER_0_27_161
*821 FILLER_0_27_167
*822 FILLER_0_27_169
*823 FILLER_0_27_181
*824 FILLER_0_27_193
*825 FILLER_0_27_205
*826 FILLER_0_27_217
*827 FILLER_0_27_223
*828 FILLER_0_27_225
*829 FILLER_0_27_237
*830 FILLER_0_27_249
*831 FILLER_0_27_261
*832 FILLER_0_27_27
*833 FILLER_0_27_273
*834 FILLER_0_27_279
*835 FILLER_0_27_281
*836 FILLER_0_27_293
*837 FILLER_0_27_3
*838 FILLER_0_27_305
*839 FILLER_0_27_317
*840 FILLER_0_27_329
*841 FILLER_0_27_335
*842 FILLER_0_27_337
*843 FILLER_0_27_349
*844 FILLER_0_27_39
*845 FILLER_0_27_51
*846 FILLER_0_27_55
*847 FILLER_0_27_57
*848 FILLER_0_27_69
*849 FILLER_0_27_81
*850 FILLER_0_27_93
*851 FILLER_0_28_109
*852 FILLER_0_28_121
*853 FILLER_0_28_133
*854 FILLER_0_28_139
*855 FILLER_0_28_141
*856 FILLER_0_28_15
*857 FILLER_0_28_153
*858 FILLER_0_28_165
*859 FILLER_0_28_177
*860 FILLER_0_28_189
*861 FILLER_0_28_195
*862 FILLER_0_28_197
*863 FILLER_0_28_209
*864 FILLER_0_28_221
*865 FILLER_0_28_233
*866 FILLER_0_28_245
*867 FILLER_0_28_251
*868 FILLER_0_28_253
*869 FILLER_0_28_265
*870 FILLER_0_28_27
*871 FILLER_0_28_277
*872 FILLER_0_28_289
*873 FILLER_0_28_29
*874 FILLER_0_28_3
*875 FILLER_0_28_301
*876 FILLER_0_28_307
*877 FILLER_0_28_309
*878 FILLER_0_28_321
*879 FILLER_0_28_333
*880 FILLER_0_28_345
*881 FILLER_0_28_41
*882 FILLER_0_28_53
*883 FILLER_0_28_65
*884 FILLER_0_28_77
*885 FILLER_0_28_83
*886 FILLER_0_28_85
*887 FILLER_0_28_97
*888 FILLER_0_29_105
*889 FILLER_0_29_111
*890 FILLER_0_29_113
*891 FILLER_0_29_125
*892 FILLER_0_29_137
*893 FILLER_0_29_149
*894 FILLER_0_29_15
*895 FILLER_0_29_161
*896 FILLER_0_29_167
*897 FILLER_0_29_169
*898 FILLER_0_29_181
*899 FILLER_0_29_193
*900 FILLER_0_29_205
*901 FILLER_0_29_217
*902 FILLER_0_29_223
*903 FILLER_0_29_225
*904 FILLER_0_29_237
*905 FILLER_0_29_249
*906 FILLER_0_29_261
*907 FILLER_0_29_27
*908 FILLER_0_29_273
*909 FILLER_0_29_279
*910 FILLER_0_29_281
*911 FILLER_0_29_293
*912 FILLER_0_29_3
*913 FILLER_0_29_305
*914 FILLER_0_29_317
*915 FILLER_0_29_329
*916 FILLER_0_29_335
*917 FILLER_0_29_337
*918 FILLER_0_29_349
*919 FILLER_0_29_39
*920 FILLER_0_29_51
*921 FILLER_0_29_55
*922 FILLER_0_29_57
*923 FILLER_0_29_69
*924 FILLER_0_29_81
*925 FILLER_0_29_93
*926 FILLER_0_2_109
*927 FILLER_0_2_121
*928 FILLER_0_2_133
*929 FILLER_0_2_139
*930 FILLER_0_2_141
*931 FILLER_0_2_15
*932 FILLER_0_2_153
*933 FILLER_0_2_165
*934 FILLER_0_2_177
*935 FILLER_0_2_189
*936 FILLER_0_2_195
*937 FILLER_0_2_197
*938 FILLER_0_2_209
*939 FILLER_0_2_221
*940 FILLER_0_2_233
*941 FILLER_0_2_245
*942 FILLER_0_2_251
*943 FILLER_0_2_253
*944 FILLER_0_2_265
*945 FILLER_0_2_27
*946 FILLER_0_2_277
*947 FILLER_0_2_289
*948 FILLER_0_2_29
*949 FILLER_0_2_3
*950 FILLER_0_2_301
*951 FILLER_0_2_307
*952 FILLER_0_2_309
*953 FILLER_0_2_321
*954 FILLER_0_2_333
*955 FILLER_0_2_345
*956 FILLER_0_2_41
*957 FILLER_0_2_53
*958 FILLER_0_2_65
*959 FILLER_0_2_77
*960 FILLER_0_2_83
*961 FILLER_0_2_85
*962 FILLER_0_2_97
*963 FILLER_0_30_109
*964 FILLER_0_30_121
*965 FILLER_0_30_133
*966 FILLER_0_30_139
*967 FILLER_0_30_141
*968 FILLER_0_30_15
*969 FILLER_0_30_153
*970 FILLER_0_30_165
*971 FILLER_0_30_177
*972 FILLER_0_30_189
*973 FILLER_0_30_195
*974 FILLER_0_30_197
*975 FILLER_0_30_209
*976 FILLER_0_30_221
*977 FILLER_0_30_233
*978 FILLER_0_30_245
*979 FILLER_0_30_251
*980 FILLER_0_30_253
*981 FILLER_0_30_265
*982 FILLER_0_30_27
*983 FILLER_0_30_277
*984 FILLER_0_30_289
*985 FILLER_0_30_29
*986 FILLER_0_30_3
*987 FILLER_0_30_301
*988 FILLER_0_30_307
*989 FILLER_0_30_309
*990 FILLER_0_30_321
*991 FILLER_0_30_333
*992 FILLER_0_30_345
*993 FILLER_0_30_41
*994 FILLER_0_30_53
*995 FILLER_0_30_65
*996 FILLER_0_30_77
*997 FILLER_0_30_83
*998 FILLER_0_30_85
*999 FILLER_0_30_97
*1000 FILLER_0_31_105
*1001 FILLER_0_31_111
*1002 FILLER_0_31_113
*1003 FILLER_0_31_125
*1004 FILLER_0_31_137
*1005 FILLER_0_31_149
*1006 FILLER_0_31_15
*1007 FILLER_0_31_161
*1008 FILLER_0_31_167
*1009 FILLER_0_31_169
*1010 FILLER_0_31_181
*1011 FILLER_0_31_193
*1012 FILLER_0_31_205
*1013 FILLER_0_31_217
*1014 FILLER_0_31_223
*1015 FILLER_0_31_225
*1016 FILLER_0_31_237
*1017 FILLER_0_31_249
*1018 FILLER_0_31_261
*1019 FILLER_0_31_27
*1020 FILLER_0_31_273
*1021 FILLER_0_31_279
*1022 FILLER_0_31_281
*1023 FILLER_0_31_293
*1024 FILLER_0_31_3
*1025 FILLER_0_31_305
*1026 FILLER_0_31_317
*1027 FILLER_0_31_329
*1028 FILLER_0_31_335
*1029 FILLER_0_31_337
*1030 FILLER_0_31_349
*1031 FILLER_0_31_39
*1032 FILLER_0_31_51
*1033 FILLER_0_31_55
*1034 FILLER_0_31_57
*1035 FILLER_0_31_69
*1036 FILLER_0_31_81
*1037 FILLER_0_31_93
*1038 FILLER_0_32_109
*1039 FILLER_0_32_121
*1040 FILLER_0_32_133
*1041 FILLER_0_32_139
*1042 FILLER_0_32_141
*1043 FILLER_0_32_15
*1044 FILLER_0_32_153
*1045 FILLER_0_32_165
*1046 FILLER_0_32_177
*1047 FILLER_0_32_189
*1048 FILLER_0_32_195
*1049 FILLER_0_32_197
*1050 FILLER_0_32_209
*1051 FILLER_0_32_221
*1052 FILLER_0_32_233
*1053 FILLER_0_32_245
*1054 FILLER_0_32_251
*1055 FILLER_0_32_253
*1056 FILLER_0_32_265
*1057 FILLER_0_32_27
*1058 FILLER_0_32_277
*1059 FILLER_0_32_289
*1060 FILLER_0_32_29
*1061 FILLER_0_32_3
*1062 FILLER_0_32_301
*1063 FILLER_0_32_307
*1064 FILLER_0_32_309
*1065 FILLER_0_32_321
*1066 FILLER_0_32_333
*1067 FILLER_0_32_345
*1068 FILLER_0_32_41
*1069 FILLER_0_32_53
*1070 FILLER_0_32_65
*1071 FILLER_0_32_77
*1072 FILLER_0_32_83
*1073 FILLER_0_32_85
*1074 FILLER_0_32_97
*1075 FILLER_0_33_105
*1076 FILLER_0_33_111
*1077 FILLER_0_33_113
*1078 FILLER_0_33_125
*1079 FILLER_0_33_137
*1080 FILLER_0_33_149
*1081 FILLER_0_33_15
*1082 FILLER_0_33_161
*1083 FILLER_0_33_167
*1084 FILLER_0_33_169
*1085 FILLER_0_33_181
*1086 FILLER_0_33_193
*1087 FILLER_0_33_205
*1088 FILLER_0_33_217
*1089 FILLER_0_33_223
*1090 FILLER_0_33_225
*1091 FILLER_0_33_237
*1092 FILLER_0_33_249
*1093 FILLER_0_33_261
*1094 FILLER_0_33_27
*1095 FILLER_0_33_273
*1096 FILLER_0_33_279
*1097 FILLER_0_33_281
*1098 FILLER_0_33_293
*1099 FILLER_0_33_3
*1100 FILLER_0_33_305
*1101 FILLER_0_33_317
*1102 FILLER_0_33_329
*1103 FILLER_0_33_335
*1104 FILLER_0_33_337
*1105 FILLER_0_33_349
*1106 FILLER_0_33_39
*1107 FILLER_0_33_51
*1108 FILLER_0_33_55
*1109 FILLER_0_33_57
*1110 FILLER_0_33_69
*1111 FILLER_0_33_81
*1112 FILLER_0_33_93
*1113 FILLER_0_34_109
*1114 FILLER_0_34_121
*1115 FILLER_0_34_133
*1116 FILLER_0_34_139
*1117 FILLER_0_34_141
*1118 FILLER_0_34_15
*1119 FILLER_0_34_153
*1120 FILLER_0_34_165
*1121 FILLER_0_34_177
*1122 FILLER_0_34_189
*1123 FILLER_0_34_195
*1124 FILLER_0_34_197
*1125 FILLER_0_34_204
*1126 FILLER_0_34_211
*1127 FILLER_0_34_223
*1128 FILLER_0_34_229
*1129 FILLER_0_34_238
*1130 FILLER_0_34_250
*1131 FILLER_0_34_253
*1132 FILLER_0_34_27
*1133 FILLER_0_34_277
*1134 FILLER_0_34_283
*1135 FILLER_0_34_29
*1136 FILLER_0_34_291
*1137 FILLER_0_34_3
*1138 FILLER_0_34_303
*1139 FILLER_0_34_307
*1140 FILLER_0_34_309
*1141 FILLER_0_34_321
*1142 FILLER_0_34_333
*1143 FILLER_0_34_345
*1144 FILLER_0_34_41
*1145 FILLER_0_34_53
*1146 FILLER_0_34_65
*1147 FILLER_0_34_77
*1148 FILLER_0_34_83
*1149 FILLER_0_34_85
*1150 FILLER_0_34_97
*1151 FILLER_0_35_105
*1152 FILLER_0_35_111
*1153 FILLER_0_35_113
*1154 FILLER_0_35_125
*1155 FILLER_0_35_137
*1156 FILLER_0_35_149
*1157 FILLER_0_35_15
*1158 FILLER_0_35_161
*1159 FILLER_0_35_167
*1160 FILLER_0_35_169
*1161 FILLER_0_35_185
*1162 FILLER_0_35_208
*1163 FILLER_0_35_221
*1164 FILLER_0_35_225
*1165 FILLER_0_35_266
*1166 FILLER_0_35_27
*1167 FILLER_0_35_270
*1168 FILLER_0_35_279
*1169 FILLER_0_35_297
*1170 FILLER_0_35_3
*1171 FILLER_0_35_309
*1172 FILLER_0_35_321
*1173 FILLER_0_35_333
*1174 FILLER_0_35_337
*1175 FILLER_0_35_349
*1176 FILLER_0_35_39
*1177 FILLER_0_35_51
*1178 FILLER_0_35_55
*1179 FILLER_0_35_57
*1180 FILLER_0_35_69
*1181 FILLER_0_35_81
*1182 FILLER_0_35_93
*1183 FILLER_0_36_109
*1184 FILLER_0_36_121
*1185 FILLER_0_36_133
*1186 FILLER_0_36_139
*1187 FILLER_0_36_141
*1188 FILLER_0_36_15
*1189 FILLER_0_36_153
*1190 FILLER_0_36_165
*1191 FILLER_0_36_171
*1192 FILLER_0_36_193
*1193 FILLER_0_36_204
*1194 FILLER_0_36_210
*1195 FILLER_0_36_220
*1196 FILLER_0_36_237
*1197 FILLER_0_36_248
*1198 FILLER_0_36_262
*1199 FILLER_0_36_27
*1200 FILLER_0_36_274
*1201 FILLER_0_36_29
*1202 FILLER_0_36_292
*1203 FILLER_0_36_3
*1204 FILLER_0_36_304
*1205 FILLER_0_36_309
*1206 FILLER_0_36_321
*1207 FILLER_0_36_333
*1208 FILLER_0_36_345
*1209 FILLER_0_36_41
*1210 FILLER_0_36_53
*1211 FILLER_0_36_65
*1212 FILLER_0_36_77
*1213 FILLER_0_36_83
*1214 FILLER_0_36_85
*1215 FILLER_0_36_97
*1216 FILLER_0_37_105
*1217 FILLER_0_37_111
*1218 FILLER_0_37_113
*1219 FILLER_0_37_125
*1220 FILLER_0_37_137
*1221 FILLER_0_37_149
*1222 FILLER_0_37_15
*1223 FILLER_0_37_169
*1224 FILLER_0_37_187
*1225 FILLER_0_37_198
*1226 FILLER_0_37_216
*1227 FILLER_0_37_244
*1228 FILLER_0_37_261
*1229 FILLER_0_37_27
*1230 FILLER_0_37_273
*1231 FILLER_0_37_290
*1232 FILLER_0_37_3
*1233 FILLER_0_37_305
*1234 FILLER_0_37_317
*1235 FILLER_0_37_329
*1236 FILLER_0_37_335
*1237 FILLER_0_37_337
*1238 FILLER_0_37_349
*1239 FILLER_0_37_39
*1240 FILLER_0_37_51
*1241 FILLER_0_37_55
*1242 FILLER_0_37_57
*1243 FILLER_0_37_69
*1244 FILLER_0_37_81
*1245 FILLER_0_37_93
*1246 FILLER_0_38_104
*1247 FILLER_0_38_110
*1248 FILLER_0_38_116
*1249 FILLER_0_38_122
*1250 FILLER_0_38_128
*1251 FILLER_0_38_134
*1252 FILLER_0_38_141
*1253 FILLER_0_38_146
*1254 FILLER_0_38_15
*1255 FILLER_0_38_152
*1256 FILLER_0_38_158
*1257 FILLER_0_38_166
*1258 FILLER_0_38_169
*1259 FILLER_0_38_191
*1260 FILLER_0_38_195
*1261 FILLER_0_38_211
*1262 FILLER_0_38_219
*1263 FILLER_0_38_225
*1264 FILLER_0_38_237
*1265 FILLER_0_38_249
*1266 FILLER_0_38_253
*1267 FILLER_0_38_261
*1268 FILLER_0_38_27
*1269 FILLER_0_38_29
*1270 FILLER_0_38_3
*1271 FILLER_0_38_306
*1272 FILLER_0_38_313
*1273 FILLER_0_38_325
*1274 FILLER_0_38_333
*1275 FILLER_0_38_337
*1276 FILLER_0_38_349
*1277 FILLER_0_38_41
*1278 FILLER_0_38_53
*1279 FILLER_0_38_57
*1280 FILLER_0_38_68
*1281 FILLER_0_38_74
*1282 FILLER_0_38_80
*1283 FILLER_0_38_88
*1284 FILLER_0_38_92
*1285 FILLER_0_38_98
*1286 FILLER_0_3_105
*1287 FILLER_0_3_111
*1288 FILLER_0_3_113
*1289 FILLER_0_3_125
*1290 FILLER_0_3_137
*1291 FILLER_0_3_149
*1292 FILLER_0_3_15
*1293 FILLER_0_3_161
*1294 FILLER_0_3_167
*1295 FILLER_0_3_169
*1296 FILLER_0_3_181
*1297 FILLER_0_3_193
*1298 FILLER_0_3_205
*1299 FILLER_0_3_217
*1300 FILLER_0_3_223
*1301 FILLER_0_3_225
*1302 FILLER_0_3_237
*1303 FILLER_0_3_249
*1304 FILLER_0_3_261
*1305 FILLER_0_3_27
*1306 FILLER_0_3_273
*1307 FILLER_0_3_279
*1308 FILLER_0_3_281
*1309 FILLER_0_3_293
*1310 FILLER_0_3_3
*1311 FILLER_0_3_305
*1312 FILLER_0_3_317
*1313 FILLER_0_3_329
*1314 FILLER_0_3_335
*1315 FILLER_0_3_337
*1316 FILLER_0_3_349
*1317 FILLER_0_3_39
*1318 FILLER_0_3_51
*1319 FILLER_0_3_55
*1320 FILLER_0_3_57
*1321 FILLER_0_3_69
*1322 FILLER_0_3_81
*1323 FILLER_0_3_93
*1324 FILLER_0_4_109
*1325 FILLER_0_4_121
*1326 FILLER_0_4_133
*1327 FILLER_0_4_139
*1328 FILLER_0_4_141
*1329 FILLER_0_4_15
*1330 FILLER_0_4_153
*1331 FILLER_0_4_165
*1332 FILLER_0_4_177
*1333 FILLER_0_4_189
*1334 FILLER_0_4_195
*1335 FILLER_0_4_197
*1336 FILLER_0_4_209
*1337 FILLER_0_4_221
*1338 FILLER_0_4_233
*1339 FILLER_0_4_245
*1340 FILLER_0_4_251
*1341 FILLER_0_4_253
*1342 FILLER_0_4_265
*1343 FILLER_0_4_27
*1344 FILLER_0_4_277
*1345 FILLER_0_4_289
*1346 FILLER_0_4_29
*1347 FILLER_0_4_3
*1348 FILLER_0_4_301
*1349 FILLER_0_4_307
*1350 FILLER_0_4_309
*1351 FILLER_0_4_321
*1352 FILLER_0_4_333
*1353 FILLER_0_4_345
*1354 FILLER_0_4_41
*1355 FILLER_0_4_53
*1356 FILLER_0_4_65
*1357 FILLER_0_4_77
*1358 FILLER_0_4_83
*1359 FILLER_0_4_85
*1360 FILLER_0_4_97
*1361 FILLER_0_5_105
*1362 FILLER_0_5_111
*1363 FILLER_0_5_113
*1364 FILLER_0_5_125
*1365 FILLER_0_5_137
*1366 FILLER_0_5_149
*1367 FILLER_0_5_15
*1368 FILLER_0_5_161
*1369 FILLER_0_5_167
*1370 FILLER_0_5_169
*1371 FILLER_0_5_181
*1372 FILLER_0_5_193
*1373 FILLER_0_5_205
*1374 FILLER_0_5_217
*1375 FILLER_0_5_223
*1376 FILLER_0_5_225
*1377 FILLER_0_5_237
*1378 FILLER_0_5_249
*1379 FILLER_0_5_261
*1380 FILLER_0_5_27
*1381 FILLER_0_5_273
*1382 FILLER_0_5_279
*1383 FILLER_0_5_281
*1384 FILLER_0_5_293
*1385 FILLER_0_5_3
*1386 FILLER_0_5_305
*1387 FILLER_0_5_317
*1388 FILLER_0_5_329
*1389 FILLER_0_5_335
*1390 FILLER_0_5_337
*1391 FILLER_0_5_349
*1392 FILLER_0_5_39
*1393 FILLER_0_5_51
*1394 FILLER_0_5_55
*1395 FILLER_0_5_57
*1396 FILLER_0_5_69
*1397 FILLER_0_5_81
*1398 FILLER_0_5_93
*1399 FILLER_0_6_109
*1400 FILLER_0_6_121
*1401 FILLER_0_6_133
*1402 FILLER_0_6_139
*1403 FILLER_0_6_141
*1404 FILLER_0_6_15
*1405 FILLER_0_6_153
*1406 FILLER_0_6_165
*1407 FILLER_0_6_177
*1408 FILLER_0_6_189
*1409 FILLER_0_6_195
*1410 FILLER_0_6_197
*1411 FILLER_0_6_209
*1412 FILLER_0_6_221
*1413 FILLER_0_6_233
*1414 FILLER_0_6_245
*1415 FILLER_0_6_251
*1416 FILLER_0_6_253
*1417 FILLER_0_6_265
*1418 FILLER_0_6_27
*1419 FILLER_0_6_277
*1420 FILLER_0_6_289
*1421 FILLER_0_6_29
*1422 FILLER_0_6_3
*1423 FILLER_0_6_301
*1424 FILLER_0_6_307
*1425 FILLER_0_6_309
*1426 FILLER_0_6_321
*1427 FILLER_0_6_333
*1428 FILLER_0_6_345
*1429 FILLER_0_6_41
*1430 FILLER_0_6_53
*1431 FILLER_0_6_65
*1432 FILLER_0_6_77
*1433 FILLER_0_6_83
*1434 FILLER_0_6_85
*1435 FILLER_0_6_97
*1436 FILLER_0_7_105
*1437 FILLER_0_7_111
*1438 FILLER_0_7_113
*1439 FILLER_0_7_125
*1440 FILLER_0_7_137
*1441 FILLER_0_7_149
*1442 FILLER_0_7_15
*1443 FILLER_0_7_161
*1444 FILLER_0_7_167
*1445 FILLER_0_7_169
*1446 FILLER_0_7_181
*1447 FILLER_0_7_193
*1448 FILLER_0_7_205
*1449 FILLER_0_7_217
*1450 FILLER_0_7_223
*1451 FILLER_0_7_225
*1452 FILLER_0_7_237
*1453 FILLER_0_7_249
*1454 FILLER_0_7_261
*1455 FILLER_0_7_27
*1456 FILLER_0_7_273
*1457 FILLER_0_7_279
*1458 FILLER_0_7_281
*1459 FILLER_0_7_293
*1460 FILLER_0_7_3
*1461 FILLER_0_7_305
*1462 FILLER_0_7_317
*1463 FILLER_0_7_329
*1464 FILLER_0_7_335
*1465 FILLER_0_7_337
*1466 FILLER_0_7_349
*1467 FILLER_0_7_39
*1468 FILLER_0_7_51
*1469 FILLER_0_7_55
*1470 FILLER_0_7_57
*1471 FILLER_0_7_69
*1472 FILLER_0_7_81
*1473 FILLER_0_7_93
*1474 FILLER_0_8_109
*1475 FILLER_0_8_121