*SPEF "ieee 1481-1999"
*DESIGN "tt_um_toivoh_synth"
*DATE "11:11:11 Fri 11 11, 1111"
*VENDOR "OpenRCX"
*PROGRAM "Parallel Extraction"
*VERSION "1.0"
*DESIGN_FLOW "NAME_SCOPE LOCAL" "PIN_CAP NONE"
*DIVIDER /
*DELIMITER :
*BUS_DELIMITER []
*T_UNIT 1 NS
*C_UNIT 1 PF
*R_UNIT 1 OHM
*L_UNIT 1 HENRY

*NAME_MAP
*3 clk
*4 ena
*5 rst_n
*6 ui_in[0]
*7 ui_in[1]
*8 ui_in[2]
*9 ui_in[3]
*10 ui_in[4]
*11 ui_in[5]
*12 ui_in[6]
*13 ui_in[7]
*14 uio_in[0]
*15 uio_in[1]
*16 uio_in[2]
*17 uio_in[3]
*18 uio_in[4]
*19 uio_in[5]
*20 uio_in[6]
*21 uio_in[7]
*22 net19
*23 net20
*24 net21
*25 net22
*26 net23
*27 net24
*28 net33
*29 net25
*30 net26
*31 net27
*32 net28
*33 net29
*34 net30
*35 net31
*36 uio_out[6]
*37 net32
*38 uo_out[0]
*39 uo_out[1]
*40 uo_out[2]
*41 uo_out[3]
*42 uo_out[4]
*43 uo_out[5]
*44 uo_out[6]
*45 uo_out[7]
*46 _0000_
*47 _0001_
*48 _0002_
*49 _0003_
*50 _0004_
*51 _0005_
*52 _0006_
*53 _0007_
*54 _0008_
*55 _0009_
*56 _0010_
*57 _0011_
*58 _0012_
*59 _0013_
*60 _0014_
*61 _0015_
*62 _0016_
*63 _0017_
*64 _0018_
*65 _0019_
*66 _0020_
*67 _0021_
*68 _0022_
*69 _0023_
*70 _0024_
*71 _0025_
*72 _0026_
*73 _0027_
*74 _0028_
*75 _0029_
*76 _0030_
*77 _0031_
*78 _0032_
*79 _0033_
*80 _0034_
*81 _0035_
*82 _0036_
*83 _0037_
*84 _0038_
*85 _0039_
*86 _0040_
*87 _0041_
*88 _0042_
*89 _0043_
*90 _0044_
*91 _0045_
*92 _0046_
*93 _0047_
*94 _0048_
*95 _0049_
*96 _0050_
*97 _0051_
*98 _0052_
*99 _0053_
*100 _0054_
*101 _0055_
*102 _0056_
*103 _0057_
*104 _0058_
*105 _0059_
*106 _0060_
*107 _0061_
*108 _0062_
*109 _0063_
*110 _0064_
*111 _0065_
*112 _0066_
*113 _0067_
*114 _0068_
*115 _0069_
*116 _0070_
*117 _0071_
*118 _0072_
*119 _0073_
*120 _0074_
*121 _0075_
*122 _0076_
*123 _0077_
*124 _0078_
*125 _0079_
*126 _0080_
*127 _0081_
*128 _0082_
*129 _0083_
*130 _0084_
*131 _0085_
*132 _0086_
*133 _0087_
*134 _0088_
*135 _0089_
*136 _0090_
*137 _0091_
*138 _0092_
*139 _0093_
*140 _0094_
*141 _0095_
*142 _0096_
*143 _0097_
*144 _0098_
*145 _0099_
*146 _0100_
*147 _0101_
*148 _0102_
*149 _0103_
*150 _0104_
*151 _0105_
*152 _0106_
*153 _0107_
*154 _0108_
*155 _0109_
*156 _0110_
*157 _0111_
*158 _0112_
*159 _0113_
*160 _0114_
*161 _0115_
*162 _0116_
*163 _0117_
*164 _0118_
*165 _0119_
*166 _0120_
*167 _0121_
*168 _0122_
*169 _0123_
*170 _0124_
*171 _0125_
*172 _0126_
*173 _0127_
*174 _0128_
*175 _0129_
*176 _0130_
*177 _0131_
*178 _0132_
*179 _0133_
*180 _0134_
*181 _0135_
*182 _0136_
*183 _0137_
*184 _0138_
*185 _0139_
*186 _0140_
*187 _0141_
*188 _0142_
*189 _0143_
*190 _0144_
*191 _0145_
*192 _0146_
*193 _0147_
*194 _0148_
*195 _0149_
*196 _0150_
*197 _0151_
*198 _0152_
*199 _0153_
*200 _0154_
*201 _0155_
*202 _0156_
*203 _0157_
*204 _0158_
*205 _0159_
*206 _0160_
*207 _0161_
*208 _0162_
*209 _0163_
*210 _0164_
*211 _0165_
*212 _0166_
*213 _0167_
*214 _0168_
*215 _0169_
*216 _0170_
*217 _0171_
*218 _0172_
*219 _0173_
*220 _0174_
*221 _0175_
*222 _0176_
*223 _0177_
*224 _0178_
*225 _0179_
*226 _0180_
*227 _0181_
*228 _0182_
*229 _0183_
*230 _0184_
*231 _0185_
*232 _0186_
*233 _0187_
*234 _0188_
*235 _0189_
*236 _0190_
*237 _0191_
*238 _0192_
*239 _0193_
*240 _0194_
*241 _0195_
*242 _0196_
*243 _0197_
*244 _0198_
*245 _0199_
*246 _0200_
*247 _0201_
*248 _0202_
*249 _0203_
*250 _0204_
*251 _0205_
*252 _0206_
*253 _0207_
*254 _0208_
*255 _0209_
*256 _0210_
*257 _0211_
*258 _0212_
*259 _0213_
*260 _0214_
*261 _0215_
*262 _0216_
*263 _0217_
*264 _0218_
*265 _0219_
*266 _0220_
*267 _0221_
*268 _0222_
*269 _0223_
*270 _0224_
*271 _0225_
*272 _0226_
*273 _0227_
*274 _0228_
*275 _0229_
*276 _0230_
*277 _0231_
*278 _0232_
*279 _0233_
*280 _0234_
*281 _0235_
*282 _0236_
*283 _0237_
*284 _0238_
*285 _0239_
*286 _0240_
*287 _0241_
*288 _0242_
*289 _0243_
*290 _0244_
*291 _0245_
*292 _0246_
*293 _0247_
*294 _0248_
*295 _0249_
*296 _0250_
*297 _0251_
*298 _0252_
*299 _0253_
*300 _0254_
*301 _0255_
*302 _0256_
*303 _0257_
*304 _0258_
*305 _0259_
*306 _0260_
*307 _0261_
*308 _0262_
*309 _0263_
*310 _0264_
*311 _0265_
*312 _0266_
*313 _0267_
*314 _0268_
*315 _0269_
*316 _0270_
*317 _0271_
*318 _0272_
*319 _0273_
*320 _0274_
*321 _0275_
*322 _0276_
*323 _0277_
*324 _0278_
*325 _0279_
*326 _0280_
*327 _0281_
*328 _0282_
*329 _0283_
*330 _0284_
*331 _0285_
*332 _0286_
*333 _0287_
*334 _0288_
*335 _0289_
*336 _0290_
*337 _0291_
*338 _0292_
*339 _0293_
*340 _0294_
*341 _0295_
*342 _0296_
*343 _0297_
*344 _0298_
*345 _0299_
*346 _0300_
*347 _0301_
*348 _0302_
*349 _0303_
*350 _0304_
*351 _0305_
*352 _0306_
*353 _0307_
*354 _0308_
*355 _0309_
*356 _0310_
*357 _0311_
*358 _0312_
*359 _0313_
*360 _0314_
*361 _0315_
*362 _0316_
*363 _0317_
*364 _0318_
*365 _0319_
*366 _0320_
*367 _0321_
*368 _0322_
*369 _0323_
*370 _0324_
*371 _0325_
*372 _0326_
*373 _0327_
*374 _0328_
*375 _0329_
*376 _0330_
*377 _0331_
*378 _0332_
*379 _0333_
*380 _0334_
*381 _0335_
*382 _0336_
*383 _0337_
*384 _0338_
*385 _0339_
*386 _0340_
*387 _0341_
*388 _0342_
*389 _0343_
*390 _0344_
*391 _0345_
*392 _0346_
*393 _0347_
*394 _0348_
*395 _0349_
*396 _0350_
*397 _0351_
*398 _0352_
*399 _0353_
*400 _0354_
*401 _0355_
*402 _0356_
*403 _0357_
*404 _0358_
*405 _0359_
*406 _0360_
*407 _0361_
*408 _0362_
*409 _0363_
*410 _0364_
*411 _0365_
*412 _0366_
*413 _0367_
*414 _0368_
*415 _0369_
*416 _0370_
*417 _0371_
*418 _0372_
*419 _0373_
*420 _0374_
*421 _0375_
*422 _0376_
*423 _0377_
*424 _0378_
*425 _0379_
*426 _0380_
*427 _0381_
*428 _0382_
*429 _0383_
*430 _0384_
*431 _0385_
*432 _0386_
*433 _0387_
*434 _0388_
*435 _0389_
*436 _0390_
*437 _0391_
*438 _0392_
*439 _0393_
*440 _0394_
*441 _0395_
*442 _0396_
*443 _0397_
*444 _0398_
*445 _0399_
*446 _0400_
*447 _0401_
*448 _0402_
*449 _0403_
*450 _0404_
*451 _0405_
*452 _0406_
*453 _0407_
*454 _0408_
*455 _0409_
*456 _0410_
*457 _0411_
*458 _0412_
*459 _0413_
*460 _0414_
*461 _0415_
*462 _0416_
*463 _0417_
*464 _0418_
*465 _0419_
*466 _0420_
*467 _0421_
*468 _0422_
*469 _0423_
*470 _0424_
*471 _0425_
*472 _0426_
*473 _0427_
*474 _0428_
*475 _0429_
*476 _0430_
*477 _0431_
*478 _0432_
*479 _0433_
*480 _0434_
*481 _0435_
*482 _0436_
*483 _0437_
*484 _0438_
*485 _0439_
*486 _0440_
*487 _0441_
*488 _0442_
*489 _0443_
*490 _0444_
*491 _0445_
*492 _0446_
*493 _0447_
*494 _0448_
*495 _0449_
*496 _0450_
*497 _0451_
*498 _0452_
*499 _0453_
*500 _0454_
*501 _0455_
*502 _0456_
*503 _0457_
*504 _0458_
*505 _0459_
*506 _0460_
*507 _0461_
*508 _0462_
*509 _0463_
*510 _0464_
*511 _0465_
*512 _0466_
*513 _0467_
*514 _0468_
*515 _0469_
*516 _0470_
*517 _0471_
*518 _0472_
*519 _0473_
*520 _0474_
*521 _0475_
*522 _0476_
*523 _0477_
*524 _0478_
*525 _0479_
*526 _0480_
*527 _0481_
*528 _0482_
*529 _0483_
*530 _0484_
*531 _0485_
*532 _0486_
*533 _0487_
*534 _0488_
*535 _0489_
*536 _0490_
*537 _0491_
*538 _0492_
*539 _0493_
*540 _0494_
*541 _0495_
*542 _0496_
*543 _0497_
*544 _0498_
*545 _0499_
*546 _0500_
*547 _0501_
*548 _0502_
*549 _0503_
*550 _0504_
*551 _0505_
*552 _0506_
*553 _0507_
*554 _0508_
*555 _0509_
*556 _0510_
*557 _0511_
*558 _0512_
*559 _0513_
*560 _0514_
*561 _0515_
*562 _0516_
*563 _0517_
*564 _0518_
*565 _0519_
*566 _0520_
*567 _0521_
*568 _0522_
*569 _0523_
*570 _0524_
*571 _0525_
*572 _0526_
*573 _0527_
*574 _0528_
*575 _0529_
*576 _0530_
*577 _0531_
*578 _0532_
*579 _0533_
*580 _0534_
*581 _0535_
*582 _0536_
*583 _0537_
*584 _0538_
*585 _0539_
*586 _0540_
*587 _0541_
*588 _0542_
*589 _0543_
*590 _0544_
*591 _0545_
*592 _0546_
*593 _0547_
*594 _0548_
*595 _0549_
*596 _0550_
*597 _0551_
*598 _0552_
*599 _0553_
*600 _0554_
*601 _0555_
*602 _0556_
*603 _0557_
*604 _0558_
*605 _0559_
*606 _0560_
*607 _0561_
*608 _0562_
*609 _0563_
*610 _0564_
*611 _0565_
*612 _0566_
*613 _0567_
*614 _0568_
*615 _0569_
*616 _0570_
*617 _0571_
*618 _0572_
*619 _0573_
*620 _0574_
*621 _0575_
*622 _0576_
*623 _0577_
*624 _0578_
*625 _0579_
*626 _0580_
*627 _0581_
*628 _0582_
*629 _0583_
*630 _0584_
*631 _0585_
*632 _0586_
*633 _0587_
*634 _0588_
*635 _0589_
*636 _0590_
*637 _0591_
*638 _0592_
*639 _0593_
*640 _0594_
*641 _0595_
*642 _0596_
*643 _0597_
*644 _0598_
*645 _0599_
*646 _0600_
*647 _0601_
*648 _0602_
*649 _0603_
*650 _0604_
*651 _0605_
*652 _0606_
*653 _0607_
*654 _0608_
*655 _0609_
*656 _0610_
*657 _0611_
*658 _0612_
*659 _0613_
*660 _0614_
*661 _0615_
*662 _0616_
*663 _0617_
*664 _0618_
*665 _0619_
*666 _0620_
*667 _0621_
*668 _0622_
*669 _0623_
*670 _0624_
*671 _0625_
*672 _0626_
*673 _0627_
*674 _0628_
*675 _0629_
*676 _0630_
*677 _0631_
*678 _0632_
*679 _0633_
*680 _0634_
*681 _0635_
*682 _0636_
*683 _0637_
*684 _0638_
*685 _0639_
*686 _0640_
*687 _0641_
*688 _0642_
*689 _0643_
*690 _0644_
*691 _0645_
*692 _0646_
*693 _0647_
*694 _0648_
*695 _0649_
*696 _0650_
*697 _0651_
*698 _0652_
*699 _0653_
*700 _0654_
*701 _0655_
*702 _0656_
*703 _0657_
*704 _0658_
*705 _0659_
*706 _0660_
*707 _0661_
*708 _0662_
*709 _0663_
*710 _0664_
*711 _0665_
*712 _0666_
*713 _0667_
*714 _0668_
*715 _0669_
*716 _0670_
*717 _0671_
*718 _0672_
*719 _0673_
*720 _0674_
*721 _0675_
*722 _0676_
*723 _0677_
*724 _0678_
*725 _0679_
*726 _0680_
*727 _0681_
*728 _0682_
*729 _0683_
*730 _0684_
*731 _0685_
*732 _0686_
*733 _0687_
*734 _0688_
*735 _0689_
*736 _0690_
*737 _0691_
*738 _0692_
*739 _0693_
*740 _0694_
*741 _0695_
*742 _0696_
*743 _0697_
*744 _0698_
*745 _0699_
*746 _0700_
*747 _0701_
*748 _0702_
*749 _0703_
*750 _0704_
*751 _0705_
*752 _0706_
*753 _0707_
*754 _0708_
*755 _0709_
*756 _0710_
*757 _0711_
*758 _0712_
*759 _0713_
*760 _0714_
*761 _0715_
*762 _0716_
*763 _0717_
*764 _0718_
*765 _0719_
*766 _0720_
*767 _0721_
*768 _0722_
*769 _0723_
*770 _0724_
*771 _0725_
*772 _0726_
*773 _0727_
*774 _0728_
*775 _0729_
*776 _0730_
*777 _0731_
*778 _0732_
*779 _0733_
*780 _0734_
*781 _0735_
*782 _0736_
*783 _0737_
*784 _0738_
*785 _0739_
*786 _0740_
*787 _0741_
*788 _0742_
*789 _0743_
*790 _0744_
*791 _0745_
*792 _0746_
*793 _0747_
*794 _0748_
*795 _0749_
*796 _0750_
*797 _0751_
*798 _0752_
*799 _0753_
*800 _0754_
*801 _0755_
*802 _0756_
*803 _0757_
*804 _0758_
*805 _0759_
*806 _0760_
*807 _0761_
*808 _0762_
*809 _0763_
*810 _0764_
*811 _0765_
*812 _0766_
*813 _0767_
*814 _0768_
*815 _0769_
*816 _0770_
*817 _0771_
*818 _0772_
*819 _0773_
*820 _0774_
*821 _0775_
*822 _0776_
*823 _0777_
*824 _0778_
*825 _0779_
*826 _0780_
*827 _0781_
*828 _0782_
*829 _0783_
*830 _0784_
*831 _0785_
*832 _0786_
*833 _0787_
*834 _0788_
*835 _0789_
*836 _0790_
*837 _0791_
*838 _0792_
*839 _0793_
*840 _0794_
*841 _0795_
*842 _0796_
*843 _0797_
*844 _0798_
*845 _0799_
*846 _0800_
*847 _0801_
*848 _0802_
*849 _0803_
*850 _0804_
*851 _0805_
*852 _0806_
*853 _0807_
*854 _0808_
*855 _0809_
*856 _0810_
*857 _0811_
*858 _0812_
*859 _0813_
*860 _0814_
*861 _0815_
*862 _0816_
*863 _0817_
*864 _0818_
*865 _0819_
*866 _0820_
*867 _0821_
*868 _0822_
*869 _0823_
*870 _0824_
*871 _0825_
*872 _0826_
*873 _0827_
*874 _0828_
*875 _0829_
*876 _0830_
*877 _0831_
*878 _0832_
*879 _0833_
*880 _0834_
*881 _0835_
*882 _0836_
*883 _0837_
*884 _0838_
*885 _0839_
*886 _0840_
*887 _0841_
*888 _0842_
*889 _0843_
*890 _0844_
*891 _0845_
*892 _0846_
*893 _0847_
*894 _0848_
*895 _0849_
*896 _0850_
*897 _0851_
*898 _0852_
*899 _0853_
*900 _0854_
*901 _0855_
*902 _0856_
*903 _0857_
*904 _0858_
*905 _0859_
*906 _0860_
*907 _0861_
*908 _0862_
*909 _0863_
*910 _0864_
*911 _0865_
*912 _0866_
*913 _0867_
*914 _0868_
*915 _0869_
*916 _0870_
*917 _0871_
*918 _0872_
*919 _0873_
*920 _0874_
*921 _0875_
*922 _0876_
*923 _0877_
*924 _0878_
*925 _0879_
*926 _0880_
*927 _0881_
*928 _0882_
*929 _0883_
*930 _0884_
*931 _0885_
*932 _0886_
*933 _0887_
*934 _0888_
*935 _0889_
*936 _0890_
*937 _0891_
*938 _0892_
*939 _0893_
*940 _0894_
*941 _0895_
*942 _0896_
*943 _0897_
*944 _0898_
*945 _0899_
*946 _0900_
*947 _0901_
*948 _0902_
*949 _0903_
*950 _0904_
*951 _0905_
*952 _0906_
*953 _0907_
*954 _0908_
*955 _0909_
*956 _0910_
*957 _0911_
*958 _0912_
*959 _0913_
*960 _0914_
*961 _0915_
*962 _0916_
*963 _0917_
*964 _0918_
*965 _0919_
*966 _0920_
*967 _0921_
*968 _0922_
*969 _0923_
*970 _0924_
*971 _0925_
*972 _0926_
*973 _0927_
*974 _0928_
*975 _0929_
*976 _0930_
*977 _0931_
*978 _0932_
*979 _0933_
*980 _0934_
*981 _0935_
*982 _0936_
*983 _0937_
*984 _0938_
*985 _0939_
*986 _0940_
*987 _0941_
*988 _0942_
*989 _0943_
*990 _0944_
*991 _0945_
*992 _0946_
*993 _0947_
*994 _0948_
*995 _0949_
*996 _0950_
*997 _0951_
*998 _0952_
*999 _0953_
*1000 _0954_
*1001 _0955_
*1002 _0956_
*1003 _0957_
*1004 _0958_
*1005 _0959_
*1006 _0960_
*1007 _0961_
*1008 _0962_
*1009 _0963_
*1010 _0964_
*1011 _0965_
*1012 _0966_
*1013 _0967_
*1014 _0968_
*1015 _0969_
*1016 _0970_
*1017 _0971_
*1018 _0972_
*1019 _0973_
*1020 _0974_
*1021 _0975_
*1022 _0976_
*1023 _0977_
*1024 _0978_
*1025 _0979_
*1026 _0980_
*1027 _0981_
*1028 _0982_
*1029 _0983_
*1030 _0984_
*1031 _0985_
*1032 _0986_
*1033 _0987_
*1034 _0988_
*1035 _0989_
*1036 _0990_
*1037 _0991_
*1038 _0992_
*1039 _0993_
*1040 _0994_
*1041 _0995_
*1042 _0996_
*1043 _0997_
*1044 _0998_
*1045 _0999_
*1046 _1000_
*1047 _1001_
*1048 _1002_
*1049 _1003_
*1050 _1004_
*1051 _1005_
*1052 _1006_
*1053 _1007_
*1054 _1008_
*1055 _1009_
*1056 _1010_
*1057 _1011_
*1058 _1012_
*1059 _1013_
*1060 _1014_
*1061 _1015_
*1062 _1016_
*1063 _1017_
*1064 _1018_
*1065 _1019_
*1066 _1020_
*1067 _1021_
*1068 _1022_
*1069 _1023_
*1070 _1024_
*1071 _1025_
*1072 _1026_
*1073 _1027_
*1074 _1028_
*1075 _1029_
*1076 _1030_
*1077 _1031_
*1078 _1032_
*1079 _1033_
*1080 _1034_
*1081 _1035_
*1082 _1036_
*1083 _1037_
*1084 _1038_
*1085 _1039_
*1086 _1040_
*1087 _1041_
*1088 _1042_
*1089 _1043_
*1090 _1044_
*1091 _1045_
*1092 _1046_
*1093 _1047_
*1094 _1048_
*1095 _1049_
*1096 _1050_
*1097 _1051_
*1098 _1052_
*1099 _1053_
*1100 _1054_
*1101 _1055_
*1102 _1056_
*1103 _1057_
*1104 _1058_
*1105 _1059_
*1106 _1060_
*1107 _1061_
*1108 _1062_
*1109 _1063_
*1110 _1064_
*1111 _1065_
*1112 _1066_
*1113 _1067_
*1114 _1068_
*1115 _1069_
*1116 _1070_
*1117 _1071_
*1118 _1072_
*1119 _1073_
*1120 _1074_
*1121 _1075_
*1122 _1076_
*1123 _1077_
*1124 _1078_
*1125 _1079_
*1126 _1080_
*1127 _1081_
*1128 _1082_
*1129 _1083_
*1130 _1084_
*1131 _1085_
*1132 _1086_
*1133 _1087_
*1134 _1088_
*1135 _1089_
*1136 _1090_
*1137 _1091_
*1138 _1092_
*1139 _1093_
*1140 _1094_
*1141 _1095_
*1142 _1096_
*1143 _1097_
*1144 _1098_
*1145 _1099_
*1146 _1100_
*1147 _1101_
*1148 _1102_
*1149 _1103_
*1150 _1104_
*1151 _1105_
*1152 _1106_
*1153 _1107_
*1154 _1108_
*1155 _1109_
*1156 _1110_
*1157 _1111_
*1158 _1112_
*1159 _1113_
*1160 _1114_
*1161 _1115_
*1162 _1116_
*1163 _1117_
*1164 _1118_
*1165 _1119_
*1166 _1120_
*1167 _1121_
*1168 _1122_
*1169 _1123_
*1170 _1124_
*1171 _1125_
*1172 _1126_
*1173 _1127_
*1174 _1128_
*1175 _1129_
*1176 _1130_
*1177 _1131_
*1178 _1132_
*1179 _1133_
*1180 _1134_
*1181 _1135_
*1182 _1136_
*1183 _1137_
*1184 _1138_
*1185 _1139_
*1186 _1140_
*1187 _1141_
*1188 _1142_
*1189 _1143_
*1190 _1144_
*1191 _1145_
*1192 _1146_
*1193 _1147_
*1194 _1148_
*1195 _1149_
*1196 _1150_
*1197 _1151_
*1198 _1152_
*1199 _1153_
*1200 _1154_
*1201 _1155_
*1202 _1156_
*1203 _1157_
*1204 _1158_
*1205 _1159_
*1206 _1160_
*1207 _1161_
*1208 _1162_
*1209 _1163_
*1210 _1164_
*1211 _1165_
*1212 _1166_
*1213 _1167_
*1214 _1168_
*1215 _1169_
*1216 _1170_
*1217 _1171_
*1218 _1172_
*1219 _1173_
*1220 _1174_
*1221 _1175_
*1222 _1176_
*1223 _1177_
*1224 _1178_
*1225 _1179_
*1226 _1180_
*1227 _1181_
*1228 _1182_
*1229 _1183_
*1230 _1184_
*1231 _1185_
*1232 _1186_
*1233 _1187_
*1234 _1188_
*1235 _1189_
*1236 _1190_
*1237 _1191_
*1238 _1192_
*1239 _1193_
*1240 _1194_
*1241 _1195_
*1242 _1196_
*1243 _1197_
*1244 _1198_
*1245 _1199_
*1246 _1200_
*1247 _1201_
*1248 _1202_
*1249 _1203_
*1250 _1204_
*1251 _1205_
*1252 _1206_
*1253 _1207_
*1254 _1208_
*1255 _1209_
*1256 _1210_
*1257 _1211_
*1258 _1212_
*1259 _1213_
*1260 _1214_
*1261 _1215_
*1262 _1216_
*1263 _1217_
*1264 _1218_
*1265 _1219_
*1266 _1220_
*1267 _1221_
*1268 _1222_
*1269 _1223_
*1270 _1224_
*1271 _1225_
*1272 _1226_
*1273 _1227_
*1274 _1228_
*1275 _1229_
*1276 _1230_
*1277 _1231_
*1278 _1232_
*1279 _1233_
*1280 _1234_
*1281 _1235_
*1282 _1236_
*1283 _1237_
*1284 _1238_
*1285 _1239_
*1286 _1240_
*1287 _1241_
*1288 _1242_
*1289 _1243_
*1290 _1244_
*1291 _1245_
*1292 _1246_
*1293 _1247_
*1294 _1248_
*1295 _1249_
*1296 _1250_
*1297 _1251_
*1298 _1252_
*1299 _1253_
*1300 _1254_
*1301 _1255_
*1302 _1256_
*1303 _1257_
*1304 _1258_
*1305 _1259_
*1306 _1260_
*1307 _1261_
*1308 _1262_
*1309 _1263_
*1310 _1264_
*1311 _1265_
*1312 _1266_
*1313 _1267_
*1314 _1268_
*1315 _1269_
*1316 _1270_
*1317 _1271_
*1318 _1272_
*1319 _1273_
*1320 _1274_
*1321 _1275_
*1322 _1276_
*1323 _1277_
*1324 _1278_
*1325 _1279_
*1326 _1280_
*1327 _1281_
*1328 _1282_
*1329 _1283_
*1330 _1284_
*1331 _1285_
*1332 _1286_
*1333 _1287_
*1334 _1288_
*1335 _1289_
*1336 _1290_
*1337 _1291_
*1338 _1292_
*1339 _1293_
*1340 _1294_
*1341 _1295_
*1342 _1296_
*1343 _1297_
*1344 _1298_
*1345 _1299_
*1346 _1300_
*1347 _1301_
*1348 _1302_
*1349 _1303_
*1350 _1304_
*1351 _1305_
*1352 _1306_
*1353 _1307_
*1354 _1308_
*1355 _1309_
*1356 _1310_
*1357 _1311_
*1358 _1312_
*1359 _1313_
*1360 _1314_
*1361 _1315_
*1362 _1316_
*1363 _1317_
*1364 _1318_
*1365 _1319_
*1366 _1320_
*1367 _1321_
*1368 _1322_
*1369 _1323_
*1370 _1324_
*1371 _1325_
*1372 _1326_
*1373 _1327_
*1374 _1328_
*1375 _1329_
*1376 _1330_
*1377 _1331_
*1378 _1332_
*1379 _1333_
*1380 _1334_
*1381 _1335_
*1382 _1336_
*1383 _1337_
*1384 _1338_
*1385 _1339_
*1386 _1340_
*1387 _1341_
*1388 _1342_
*1389 _1343_
*1390 _1344_
*1391 _1345_
*1392 _1346_
*1393 _1347_
*1394 _1348_
*1395 _1349_
*1396 _1350_
*1397 _1351_
*1398 _1352_
*1399 _1353_
*1400 _1354_
*1401 _1355_
*1402 _1356_
*1403 _1357_
*1404 _1358_
*1405 _1359_
*1406 _1360_
*1407 _1361_
*1408 _1362_
*1409 _1363_
*1410 _1364_
*1411 _1365_
*1412 _1366_
*1413 _1367_
*1414 _1368_
*1415 _1369_
*1416 _1370_
*1417 _1371_
*1418 _1372_
*1419 _1373_
*1420 _1374_
*1421 _1375_
*1422 _1376_
*1423 _1377_
*1424 _1378_
*1425 _1379_
*1426 _1380_
*1427 _1381_
*1428 _1382_
*1429 _1383_
*1430 _1384_
*1431 _1385_
*1432 _1386_
*1433 _1387_
*1434 _1388_
*1435 _1389_
*1436 _1390_
*1437 _1391_
*1438 _1392_
*1439 _1393_
*1440 _1394_
*1441 _1395_
*1442 _1396_
*1443 _1397_
*1444 _1398_
*1445 _1399_
*1446 _1400_
*1447 _1401_
*1448 _1402_
*1449 _1403_
*1450 _1404_
*1451 _1405_
*1452 _1406_
*1453 _1407_
*1454 _1408_
*1455 _1409_
*1456 _1410_
*1457 _1411_
*1458 _1412_
*1459 _1413_
*1460 _1414_
*1461 _1415_
*1462 _1416_
*1463 _1417_
*1464 _1418_
*1465 _1419_
*1466 _1420_
*1467 _1421_
*1468 _1422_
*1469 _1423_
*1470 _1424_
*1471 _1425_
*1472 _1426_
*1473 _1427_
*1474 _1428_
*1475 _1429_
*1476 _1430_
*1477 _1431_
*1478 _1432_
*1479 _1433_
*1480 _1434_
*1481 _1435_
*1482 _1436_
*1483 _1437_
*1484 _1438_
*1485 _1439_
*1486 _1440_
*1487 _1441_
*1488 _1442_
*1489 _1443_
*1490 _1444_
*1491 _1445_
*1492 _1446_
*1493 _1447_
*1494 _1448_
*1495 _1449_
*1496 _1450_
*1497 _1451_
*1498 _1452_
*1499 _1453_
*1500 _1454_
*1501 _1455_
*1502 _1456_
*1503 _1457_
*1504 _1458_
*1505 _1459_
*1506 _1460_
*1507 _1461_
*1508 _1462_
*1509 _1463_
*1510 _1464_
*1511 _1465_
*1512 _1466_
*1513 _1467_
*1514 _1468_
*1515 _1469_
*1516 _1470_
*1517 _1471_
*1518 _1472_
*1519 _1473_
*1520 _1474_
*1521 _1475_
*1522 _1476_
*1523 _1477_
*1524 _1478_
*1525 _1479_
*1526 _1480_
*1527 _1481_
*1528 _1482_
*1529 _1483_
*1530 _1484_
*1531 _1485_
*1532 _1486_
*1533 _1487_
*1534 _1488_
*1535 _1489_
*1536 _1490_
*1537 _1491_
*1538 _1492_
*1539 _1493_
*1540 _1494_
*1541 _1495_
*1542 _1496_
*1543 _1497_
*1544 _1498_
*1545 _1499_
*1546 _1500_
*1547 _1501_
*1548 _1502_
*1549 _1503_
*1550 _1504_
*1551 _1505_
*1552 _1506_
*1553 _1507_
*1554 _1508_
*1555 _1509_
*1556 _1510_
*1557 _1511_
*1558 _1512_
*1559 _1513_
*1560 _1514_
*1561 _1515_
*1562 _1516_
*1563 _1517_
*1564 _1518_
*1565 _1519_
*1566 _1520_
*1567 _1521_
*1568 _1522_
*1569 _1523_
*1570 _1524_
*1571 _1525_
*1572 _1526_
*1573 _1527_
*1574 _1528_
*1575 _1529_
*1576 _1530_
*1577 _1531_
*1578 _1532_
*1579 _1533_
*1580 _1534_
*1581 _1535_
*1582 _1536_
*1583 _1537_
*1584 _1538_
*1585 _1539_
*1586 _1540_
*1587 _1541_
*1588 _1542_
*1589 _1543_
*1590 _1544_
*1591 _1545_
*1592 _1546_
*1593 _1547_
*1594 _1548_
*1595 _1549_
*1596 _1550_
*1597 _1551_
*1598 _1552_
*1599 _1553_
*1600 _1554_
*1601 cfg0\[0\]
*1602 cfg0\[10\]
*1603 cfg0\[11\]
*1604 cfg0\[12\]
*1605 cfg0\[1\]
*1606 cfg0\[2\]
*1607 cfg0\[3\]
*1608 cfg0\[4\]
*1609 cfg0\[5\]
*1610 cfg0\[6\]
*1611 cfg0\[7\]
*1612 cfg0\[8\]
*1613 cfg0\[9\]
*1614 cfg1\[0\]
*1615 cfg1\[10\]
*1616 cfg1\[11\]
*1617 cfg1\[12\]
*1618 cfg1\[1\]
*1619 cfg1\[2\]
*1620 cfg1\[3\]
*1621 cfg1\[4\]
*1622 cfg1\[5\]
*1623 cfg1\[6\]
*1624 cfg1\[7\]
*1625 cfg1\[8\]
*1626 cfg1\[9\]
*1627 cfg2\[0\]
*1628 cfg2\[10\]
*1629 cfg2\[11\]
*1630 cfg2\[12\]
*1631 cfg2\[1\]
*1632 cfg2\[2\]
*1633 cfg2\[3\]
*1634 cfg2\[4\]
*1635 cfg2\[5\]
*1636 cfg2\[6\]
*1637 cfg2\[7\]
*1638 cfg2\[8\]
*1639 cfg2\[9\]
*1640 cfg3\[0\]
*1641 cfg3\[10\]
*1642 cfg3\[11\]
*1643 cfg3\[12\]
*1644 cfg3\[1\]
*1645 cfg3\[2\]
*1646 cfg3\[3\]
*1647 cfg3\[4\]
*1648 cfg3\[5\]
*1649 cfg3\[6\]
*1650 cfg3\[7\]
*1651 cfg3\[8\]
*1652 cfg3\[9\]
*1653 cfg4\[0\]
*1654 cfg4\[10\]
*1655 cfg4\[11\]
*1656 cfg4\[12\]
*1657 cfg4\[1\]
*1658 cfg4\[2\]
*1659 cfg4\[3\]
*1660 cfg4\[4\]
*1661 cfg4\[5\]
*1662 cfg4\[6\]
*1663 cfg4\[7\]
*1664 cfg4\[8\]
*1665 cfg4\[9\]
*1666 cfg5\[0\]
*1667 cfg5\[10\]
*1668 cfg5\[11\]
*1669 cfg5\[12\]
*1670 cfg5\[13\]
*1671 cfg5\[14\]
*1672 cfg5\[15\]
*1673 cfg5\[1\]
*1674 cfg5\[2\]
*1675 cfg5\[3\]
*1676 cfg5\[4\]
*1677 cfg5\[5\]
*1678 cfg5\[6\]
*1679 cfg5\[7\]
*1680 cfg5\[8\]
*1681 cfg5\[9\]
*1682 cfg6\[0\]
*1683 cfg6\[10\]
*1684 cfg6\[11\]
*1685 cfg6\[12\]
*1686 cfg6\[13\]
*1687 cfg6\[14\]
*1688 cfg6\[15\]
*1689 cfg6\[1\]
*1690 cfg6\[2\]
*1691 cfg6\[3\]
*1692 cfg6\[4\]
*1693 cfg6\[5\]
*1694 cfg6\[6\]
*1695 cfg6\[7\]
*1696 cfg6\[8\]
*1697 cfg6\[9\]
*1698 cfg7\[0\]
*1699 cfg7\[10\]
*1700 cfg7\[11\]
*1701 cfg7\[12\]
*1702 cfg7\[14\]
*1703 cfg7\[15\]
*1704 cfg7\[1\]
*1705 cfg7\[2\]
*1706 cfg7\[3\]
*1707 cfg7\[4\]
*1708 cfg7\[5\]
*1709 cfg7\[6\]
*1710 cfg7\[7\]
*1711 cfg7\[8\]
*1712 cfg7\[9\]
*1713 cfg_in_prev_strobe
*1714 cfg_in_strobe
*1715 cfg_override_w_addr\[0\]
*1716 cfg_override_w_addr\[1\]
*1717 cfg_override_w_addr\[2\]
*1718 clknet_0_clk
*1719 clknet_1_0__leaf_clk
*1720 clknet_1_1__leaf_clk
*1721 clknet_leaf_0_clk
*1722 clknet_leaf_10_clk
*1723 clknet_leaf_11_clk
*1724 clknet_leaf_12_clk
*1725 clknet_leaf_13_clk
*1726 clknet_leaf_14_clk
*1727 clknet_leaf_15_clk
*1728 clknet_leaf_16_clk
*1729 clknet_leaf_17_clk
*1730 clknet_leaf_18_clk
*1731 clknet_leaf_1_clk
*1732 clknet_leaf_2_clk
*1733 clknet_leaf_3_clk
*1734 clknet_leaf_4_clk
*1735 clknet_leaf_5_clk
*1736 clknet_leaf_6_clk
*1737 clknet_leaf_7_clk
*1738 clknet_leaf_8_clk
*1739 clknet_leaf_9_clk
*1740 dither\[0\]
*1741 dither\[10\]
*1742 dither\[11\]
*1743 dither\[12\]
*1744 dither\[13\]
*1745 dither\[14\]
*1746 dither\[1\]
*1747 dither\[2\]
*1748 dither\[3\]
*1749 dither\[4\]
*1750 dither\[5\]
*1751 dither\[6\]
*1752 dither\[7\]
*1753 dither\[8\]
*1754 dither\[9\]
*1755 do_mod\[0\]
*1756 do_mod\[1\]
*1757 do_mod\[2\]
*1758 lfsr\[0\]
*1759 lfsr\[10\]
*1760 lfsr\[11\]
*1761 lfsr\[12\]
*1762 lfsr\[13\]
*1763 lfsr\[14\]
*1764 lfsr\[1\]
*1765 lfsr\[2\]
*1766 lfsr\[3\]
*1767 lfsr\[4\]
*1768 lfsr\[5\]
*1769 lfsr\[6\]
*1770 lfsr\[7\]
*1771 lfsr\[8\]
*1772 lfsr\[9\]
*1773 mod_counter_state\[0\]\[0\]
*1774 mod_counter_state\[0\]\[1\]
*1775 mod_counter_state\[0\]\[2\]
*1776 mod_counter_state\[0\]\[3\]
*1777 mod_counter_state\[0\]\[4\]
*1778 mod_counter_state\[0\]\[5\]
*1779 mod_counter_state\[0\]\[6\]
*1780 mod_counter_state\[1\]\[0\]
*1781 mod_counter_state\[1\]\[1\]
*1782 mod_counter_state\[1\]\[2\]
*1783 mod_counter_state\[1\]\[3\]
*1784 mod_counter_state\[1\]\[4\]
*1785 mod_counter_state\[1\]\[5\]
*1786 mod_counter_state\[1\]\[6\]
*1787 mod_counter_state\[2\]\[0\]
*1788 mod_counter_state\[2\]\[1\]
*1789 mod_counter_state\[2\]\[2\]
*1790 mod_counter_state\[2\]\[3\]
*1791 mod_counter_state\[2\]\[4\]
*1792 mod_counter_state\[2\]\[5\]
*1793 mod_counter_state\[2\]\[6\]
*1794 net1
*1795 net10
*1796 net100
*1797 net101
*1798 net102
*1799 net103
*1800 net104
*1801 net105
*1802 net106
*1803 net107
*1804 net108
*1805 net109
*1806 net11
*1807 net110
*1808 net111
*1809 net112
*1810 net113
*1811 net114
*1812 net115
*1813 net116
*1814 net117
*1815 net118
*1816 net119
*1817 net12
*1818 net120
*1819 net121
*1820 net122
*1821 net123
*1822 net124
*1823 net125
*1824 net126
*1825 net127
*1826 net128
*1827 net129
*1828 net13
*1829 net130
*1830 net131
*1831 net132
*1832 net133
*1833 net134
*1834 net135
*1835 net136
*1836 net137
*1837 net138
*1838 net139
*1839 net14
*1840 net140
*1841 net141
*1842 net142
*1843 net143
*1844 net144
*1845 net145
*1846 net146
*1847 net147
*1848 net148
*1849 net149
*1850 net15
*1851 net150
*1852 net151
*1853 net152
*1854 net153
*1855 net154
*1856 net155
*1857 net156
*1858 net157
*1859 net158
*1860 net159
*1861 net16
*1862 net160
*1863 net161
*1864 net162
*1865 net163
*1866 net164
*1867 net165
*1868 net166
*1869 net167
*1870 net168
*1871 net169
*1872 net17
*1873 net170
*1874 net171
*1875 net172
*1876 net173
*1877 net174
*1878 net175
*1879 net176
*1880 net177
*1881 net178
*1882 net179
*1883 net18
*1884 net180
*1885 net181
*1886 net182
*1887 net183
*1888 net184
*1889 net185
*1890 net186
*1891 net187
*1892 net188
*1893 net189
*1894 net190
*1895 net191
*1896 net192
*1897 net193
*1898 net194
*1899 net195
*1900 net196
*1901 net197
*1902 net198
*1903 net199
*1904 net2
*1905 net200
*1906 net201
*1907 net202
*1908 net203
*1909 net204
*1910 net205
*1911 net206
*1912 net207
*1913 net208
*1914 net209
*1915 net210
*1916 net211
*1917 net212
*1918 net213
*1919 net214
*1920 net215
*1921 net216
*1922 net217
*1923 net218
*1924 net219
*1925 net220
*1926 net221
*1927 net222
*1928 net223
*1929 net224
*1930 net225
*1931 net226
*1932 net227
*1933 net228
*1934 net229
*1935 net230
*1936 net231
*1937 net232
*1938 net233
*1939 net234
*1940 net235
*1941 net236
*1942 net3
*1943 net34
*1944 net35
*1945 net36
*1946 net37
*1947 net38
*1948 net39
*1949 net4
*1950 net40
*1951 net41
*1952 net42
*1953 net43
*1954 net44
*1955 net45
*1956 net46
*1957 net47
*1958 net48
*1959 net49
*1960 net5
*1961 net50
*1962 net51
*1963 net52
*1964 net53
*1965 net54
*1966 net55
*1967 net56
*1968 net57
*1969 net58
*1970 net59
*1971 net6
*1972 net60
*1973 net61
*1974 net62
*1975 net63
*1976 net64
*1977 net65
*1978 net66
*1979 net67
*1980 net68
*1981 net69
*1982 net7
*1983 net70
*1984 net71
*1985 net72
*1986 net73
*1987 net74
*1988 net75
*1989 net76
*1990 net77
*1991 net78
*1992 net79
*1993 net8
*1994 net80
*1995 net81
*1996 net82
*1997 net83
*1998 net84
*1999 net85
*2000 net86
*2001 net87
*2002 net88
*2003 net89
*2004 net9
*2005 net90
*2006 net91
*2007 net92
*2008 net93
*2009 net94
*2010 net95
*2011 net96
*2012 net97
*2013 net98
*2014 net99
*2015 oct_counter\[15\]
*2016 pwm_counter\[0\]
*2017 pwm_counter\[1\]
*2018 pwm_counter\[2\]
*2019 pwm_counter\[3\]
*2020 pwm_counter\[4\]
*2021 pwm_output
*2022 saw0\[0\]
*2023 saw0\[1\]
*2024 saw1\[0\]
*2025 saw1\[1\]
*2026 saw_counter_state\[0\]\[0\]
*2027 saw_counter_state\[0\]\[1\]
*2028 saw_counter_state\[0\]\[2\]
*2029 saw_counter_state\[0\]\[3\]
*2030 saw_counter_state\[0\]\[4\]
*2031 saw_counter_state\[0\]\[5\]
*2032 saw_counter_state\[0\]\[6\]
*2033 saw_counter_state\[0\]\[7\]
*2034 saw_counter_state\[0\]\[8\]
*2035 saw_counter_state\[0\]\[9\]
*2036 saw_counter_state\[1\]\[0\]
*2037 saw_counter_state\[1\]\[1\]
*2038 saw_counter_state\[1\]\[2\]
*2039 saw_counter_state\[1\]\[3\]
*2040 saw_counter_state\[1\]\[4\]
*2041 saw_counter_state\[1\]\[5\]
*2042 saw_counter_state\[1\]\[6\]
*2043 saw_counter_state\[1\]\[7\]
*2044 saw_counter_state\[1\]\[8\]
*2045 saw_counter_state\[1\]\[9\]
*2046 state\[3\]
*2047 state\[4\]
*2048 strobe_sync\[1\]
*2049 sweep_counter_state\[0\]\[0\]
*2050 sweep_counter_state\[0\]\[1\]
*2051 sweep_counter_state\[0\]\[2\]
*2052 sweep_counter_state\[0\]\[3\]
*2053 sweep_counter_state\[1\]\[0\]
*2054 sweep_counter_state\[1\]\[1\]
*2055 sweep_counter_state\[1\]\[2\]
*2056 sweep_counter_state\[1\]\[3\]
*2057 sweep_counter_state\[2\]\[0\]
*2058 sweep_counter_state\[2\]\[1\]
*2059 sweep_counter_state\[2\]\[2\]
*2060 sweep_counter_state\[2\]\[3\]
*2061 sweep_counter_state\[3\]\[0\]
*2062 sweep_counter_state\[3\]\[1\]
*2063 sweep_counter_state\[3\]\[2\]
*2064 sweep_counter_state\[3\]\[3\]
*2065 sweep_counter_state\[4\]\[0\]
*2066 sweep_counter_state\[4\]\[1\]
*2067 sweep_counter_state\[4\]\[2\]
*2068 sweep_counter_state\[4\]\[3\]
*2069 v\[0\]
*2070 v\[10\]
*2071 v\[11\]
*2072 v\[12\]
*2073 v\[13\]
*2074 v\[14\]
*2075 v\[15\]
*2076 v\[16\]
*2077 v\[17\]
*2078 v\[18\]
*2079 v\[19\]
*2080 v\[1\]
*2081 v\[2\]
*2082 v\[3\]
*2083 v\[4\]
*2084 v\[5\]
*2085 v\[6\]
*2086 v\[7\]
*2087 v\[8\]
*2088 v\[9\]
*2089 y\[0\]
*2090 y\[10\]
*2091 y\[11\]
*2092 y\[12\]
*2093 y\[13\]
*2094 y\[14\]
*2095 y\[15\]
*2096 y\[16\]
*2097 y\[17\]
*2098 y\[18\]
*2099 y\[19\]
*2100 y\[1\]
*2101 y\[2\]
*2102 y\[3\]
*2103 y\[4\]
*2104 y\[5\]
*2105 y\[6\]
*2106 y\[7\]
*2107 y\[8\]
*2108 y\[9\]
*2109 ANTENNA_1
*2110 ANTENNA_10
*2111 ANTENNA_2
*2112 ANTENNA_3
*2113 ANTENNA_4
*2114 ANTENNA_5
*2115 ANTENNA_6
*2116 ANTENNA_7
*2117 ANTENNA_8
*2118 ANTENNA_9
*2119 FILLER_0_0_109
*2120 FILLER_0_0_113
*2121 FILLER_0_0_125
*2122 FILLER_0_0_137
*2123 FILLER_0_0_141
*2124 FILLER_0_0_15
*2125 FILLER_0_0_153
*2126 FILLER_0_0_165
*2127 FILLER_0_0_169
*2128 FILLER_0_0_181
*2129 FILLER_0_0_193
*2130 FILLER_0_0_197
*2131 FILLER_0_0_209
*2132 FILLER_0_0_221
*2133 FILLER_0_0_225
*2134 FILLER_0_0_237
*2135 FILLER_0_0_249
*2136 FILLER_0_0_253
*2137 FILLER_0_0_265
*2138 FILLER_0_0_27
*2139 FILLER_0_0_277
*2140 FILLER_0_0_281
*2141 FILLER_0_0_29
*2142 FILLER_0_0_293
*2143 FILLER_0_0_3
*2144 FILLER_0_0_305
*2145 FILLER_0_0_309
*2146 FILLER_0_0_321
*2147 FILLER_0_0_333
*2148 FILLER_0_0_337
*2149 FILLER_0_0_349
*2150 FILLER_0_0_41
*2151 FILLER_0_0_53
*2152 FILLER_0_0_57
*2153 FILLER_0_0_69
*2154 FILLER_0_0_81
*2155 FILLER_0_0_85
*2156 FILLER_0_0_97
*2157 FILLER_0_10_109
*2158 FILLER_0_10_121
*2159 FILLER_0_10_133
*2160 FILLER_0_10_139
*2161 FILLER_0_10_141
*2162 FILLER_0_10_15
*2163 FILLER_0_10_165
*2164 FILLER_0_10_186
*2165 FILLER_0_10_204
*2166 FILLER_0_10_216
*2167 FILLER_0_10_228