*SPEF "ieee 1481-1999"
*DESIGN "tt_um_toivoh_synth"
*DATE "11:11:11 Fri 11 11, 1111"
*VENDOR "OpenRCX"
*PROGRAM "Parallel Extraction"
*VERSION "1.0"
*DESIGN_FLOW "NAME_SCOPE LOCAL" "PIN_CAP NONE"
*DIVIDER /
*DELIMITER :
*BUS_DELIMITER []
*T_UNIT 1 NS
*C_UNIT 1 PF
*R_UNIT 1 OHM
*L_UNIT 1 HENRY

*NAME_MAP
*3 clk
*4 ena
*5 rst_n
*6 ui_in[0]
*7 ui_in[1]
*8 ui_in[2]
*9 ui_in[3]
*10 ui_in[4]
*11 ui_in[5]
*12 ui_in[6]
*13 ui_in[7]
*14 uio_in[0]
*15 uio_in[1]
*16 uio_in[2]
*17 uio_in[3]
*18 uio_in[4]
*19 uio_in[5]
*20 uio_in[6]
*21 uio_in[7]
*22 net18
*23 net19
*24 net20
*25 net21
*26 net22
*27 net23
*28 net24
*29 net25
*30 net26
*31 net27
*32 net28
*33 net29
*34 net30
*35 net31
*36 net32
*37 net33
*38 uo_out[0]
*39 uo_out[1]
*40 uo_out[2]
*41 uo_out[3]
*42 uo_out[4]
*43 uo_out[5]
*44 uo_out[6]
*45 uo_out[7]
*46 _0000_
*47 _0001_
*48 _0002_
*49 _0003_
*50 _0004_
*51 _0005_
*52 _0006_
*53 _0007_
*54 _0008_
*55 _0009_
*56 _0010_
*57 _0011_
*58 _0012_
*59 _0013_
*60 _0014_
*61 _0015_
*62 _0016_
*63 _0017_
*64 _0018_
*65 _0019_
*66 _0020_
*67 _0021_
*68 _0022_
*69 _0023_
*70 _0024_
*71 _0025_
*72 _0026_
*73 _0027_
*74 _0028_
*75 _0029_
*76 _0030_
*77 _0031_
*78 _0032_
*79 _0033_
*80 _0034_
*81 _0035_
*82 _0036_
*83 _0037_
*84 _0038_
*85 _0039_
*86 _0040_
*87 _0041_
*88 _0042_
*89 _0043_
*90 _0044_
*91 _0045_
*92 _0046_
*93 _0047_
*94 _0048_
*95 _0049_
*96 _0050_
*97 _0051_
*98 _0052_
*99 _0053_
*100 _0054_
*101 _0055_
*102 _0056_
*103 _0057_
*104 _0058_
*105 _0059_
*106 _0060_
*107 _0061_
*108 _0062_
*109 _0063_
*110 _0064_
*111 _0065_
*112 _0066_
*113 _0067_
*114 _0068_
*115 _0069_
*116 _0070_
*117 _0071_
*118 _0072_
*119 _0073_
*120 _0074_
*121 _0075_
*122 _0076_
*123 _0077_
*124 _0078_
*125 _0079_
*126 _0080_
*127 _0081_
*128 _0082_
*129 _0083_
*130 _0084_
*131 _0085_
*132 _0086_
*133 _0087_
*134 _0088_
*135 _0089_
*136 _0090_
*137 _0091_
*138 _0092_
*139 _0093_
*140 _0094_
*141 _0095_
*142 _0096_
*143 _0097_
*144 _0098_
*145 _0099_
*146 _0100_
*147 _0101_
*148 _0102_
*149 _0103_
*150 _0104_
*151 _0105_
*152 _0106_
*153 _0107_
*154 _0108_
*155 _0109_
*156 _0110_
*157 _0111_
*158 _0112_
*159 _0113_
*160 _0114_
*161 _0115_
*162 _0116_
*163 _0117_
*164 _0118_
*165 _0119_
*166 _0120_
*167 _0121_
*168 _0122_
*169 _0123_
*170 _0124_
*171 _0125_
*172 _0126_
*173 _0127_
*174 _0128_
*175 _0129_
*176 _0130_
*177 _0131_
*178 _0132_
*179 _0133_
*180 _0134_
*181 _0135_
*182 _0136_
*183 _0137_
*184 _0138_
*185 _0139_
*186 _0140_
*187 _0141_
*188 _0142_
*189 _0143_
*190 _0144_
*191 _0145_
*192 _0146_
*193 _0147_
*194 _0148_
*195 _0149_
*196 _0150_
*197 _0151_
*198 _0152_
*199 _0153_
*200 _0154_
*201 _0155_
*202 _0156_
*203 _0157_
*204 _0158_
*205 _0159_
*206 _0160_
*207 _0161_
*208 _0162_
*209 _0163_
*210 _0164_
*211 _0165_
*212 _0166_
*213 _0167_
*214 _0168_
*215 _0169_
*216 _0170_
*217 _0171_
*218 _0172_
*219 _0173_
*220 _0174_
*221 _0175_
*222 _0176_
*223 _0177_
*224 _0178_
*225 _0179_
*226 _0180_
*227 _0181_
*228 _0182_
*229 _0183_
*230 _0184_
*231 _0185_
*232 _0186_
*233 _0187_
*234 _0188_
*235 _0189_
*236 _0190_
*237 _0191_
*238 _0192_
*239 _0193_
*240 _0194_
*241 _0195_
*242 _0196_
*243 _0197_
*244 _0198_
*245 _0199_
*246 _0200_
*247 _0201_
*248 _0202_
*249 _0203_
*250 _0204_
*251 _0205_
*252 _0206_
*253 _0207_
*254 _0208_
*255 _0209_
*256 _0210_
*257 _0211_
*258 _0212_
*259 _0213_
*260 _0214_
*261 _0215_
*262 _0216_
*263 _0217_
*264 _0218_
*265 _0219_
*266 _0220_
*267 _0221_
*268 _0222_
*269 _0223_
*270 _0224_
*271 _0225_
*272 _0226_
*273 _0227_
*274 _0228_
*275 _0229_
*276 _0230_
*277 _0231_
*278 _0232_
*279 _0233_
*280 _0234_
*281 _0235_
*282 _0236_
*283 _0237_
*284 _0238_
*285 _0239_
*286 _0240_
*287 _0241_
*288 _0242_
*289 _0243_
*290 _0244_
*291 _0245_
*292 _0246_
*293 _0247_
*294 _0248_
*295 _0249_
*296 _0250_
*297 _0251_
*298 _0252_
*299 _0253_
*300 _0254_
*301 _0255_
*302 _0256_
*303 _0257_
*304 _0258_
*305 _0259_
*306 _0260_
*307 _0261_
*308 _0262_
*309 _0263_
*310 _0264_
*311 _0265_
*312 _0266_
*313 _0267_
*314 _0268_
*315 _0269_
*316 _0270_
*317 _0271_
*318 _0272_
*319 _0273_
*320 _0274_
*321 _0275_
*322 _0276_
*323 _0277_
*324 _0278_
*325 _0279_
*326 _0280_
*327 _0281_
*328 _0282_
*329 _0283_
*330 _0284_
*331 _0285_
*332 _0286_
*333 _0287_
*334 _0288_
*335 _0289_
*336 _0290_
*337 _0291_
*338 _0292_
*339 _0293_
*340 _0294_
*341 _0295_
*342 _0296_
*343 _0297_
*344 _0298_
*345 _0299_
*346 _0300_
*347 _0301_
*348 _0302_
*349 _0303_
*350 _0304_
*351 _0305_
*352 _0306_
*353 _0307_
*354 _0308_
*355 _0309_
*356 _0310_
*357 _0311_
*358 _0312_
*359 _0313_
*360 _0314_
*361 _0315_
*362 _0316_
*363 _0317_
*364 _0318_
*365 _0319_
*366 _0320_
*367 _0321_
*368 _0322_
*369 _0323_
*370 _0324_
*371 _0325_
*372 _0326_
*373 _0327_
*374 _0328_
*375 _0329_
*376 _0330_
*377 _0331_
*378 _0332_
*379 _0333_
*380 _0334_
*381 _0335_
*382 _0336_
*383 _0337_
*384 _0338_
*385 _0339_
*386 _0340_
*387 _0341_
*388 _0342_
*389 _0343_
*390 _0344_
*391 _0345_
*392 _0346_
*393 _0347_
*394 _0348_
*395 _0349_
*396 _0350_
*397 _0351_
*398 _0352_
*399 _0353_
*400 _0354_
*401 _0355_
*402 _0356_
*403 _0357_
*404 _0358_
*405 _0359_
*406 _0360_
*407 _0361_
*408 _0362_
*409 _0363_
*410 _0364_
*411 _0365_
*412 _0366_
*413 _0367_
*414 _0368_
*415 _0369_
*416 _0370_
*417 _0371_
*418 _0372_
*419 _0373_
*420 _0374_
*421 _0375_
*422 _0376_
*423 _0377_
*424 _0378_
*425 _0379_
*426 _0380_
*427 _0381_
*428 _0382_
*429 _0383_
*430 _0384_
*431 _0385_
*432 _0386_
*433 _0387_
*434 _0388_
*435 _0389_
*436 _0390_
*437 _0391_
*438 _0392_
*439 _0393_
*440 _0394_
*441 _0395_
*442 _0396_
*443 _0397_
*444 _0398_
*445 _0399_
*446 _0400_
*447 _0401_
*448 _0402_
*449 _0403_
*450 _0404_
*451 _0405_
*452 _0406_
*453 _0407_
*454 _0408_
*455 _0409_
*456 _0410_
*457 _0411_
*458 _0412_
*459 _0413_
*460 _0414_
*461 _0415_
*462 _0416_
*463 _0417_
*464 _0418_
*465 _0419_
*466 _0420_
*467 _0421_
*468 _0422_
*469 _0423_
*470 _0424_
*471 _0425_
*472 _0426_
*473 _0427_
*474 _0428_
*475 _0429_
*476 _0430_
*477 _0431_
*478 _0432_
*479 _0433_
*480 _0434_
*481 _0435_
*482 _0436_
*483 _0437_
*484 _0438_
*485 _0439_
*486 _0440_
*487 _0441_
*488 _0442_
*489 _0443_
*490 _0444_
*491 _0445_
*492 _0446_
*493 _0447_
*494 _0448_
*495 _0449_
*496 _0450_
*497 _0451_
*498 _0452_
*499 _0453_
*500 _0454_
*501 _0455_
*502 _0456_
*503 _0457_
*504 _0458_
*505 _0459_
*506 _0460_
*507 _0461_
*508 _0462_
*509 _0463_
*510 _0464_
*511 _0465_
*512 _0466_
*513 _0467_
*514 _0468_
*515 _0469_
*516 _0470_
*517 _0471_
*518 _0472_
*519 _0473_
*520 _0474_
*521 _0475_
*522 _0476_
*523 _0477_
*524 _0478_
*525 _0479_
*526 _0480_
*527 _0481_
*528 _0482_
*529 _0483_
*530 _0484_
*531 _0485_
*532 _0486_
*533 _0487_
*534 _0488_
*535 _0489_
*536 _0490_
*537 _0491_
*538 _0492_
*539 _0493_
*540 _0494_
*541 _0495_
*542 _0496_
*543 _0497_
*544 _0498_
*545 _0499_
*546 _0500_
*547 _0501_
*548 _0502_
*549 _0503_
*550 _0504_
*551 _0505_
*552 _0506_
*553 _0507_
*554 _0508_
*555 _0509_
*556 _0510_
*557 _0511_
*558 _0512_
*559 _0513_
*560 _0514_
*561 _0515_
*562 _0516_
*563 _0517_
*564 _0518_
*565 _0519_
*566 _0520_
*567 _0521_
*568 _0522_
*569 _0523_
*570 _0524_
*571 _0525_
*572 _0526_
*573 _0527_
*574 _0528_
*575 _0529_
*576 _0530_
*577 _0531_
*578 _0532_
*579 _0533_
*580 _0534_
*581 _0535_
*582 _0536_
*583 _0537_
*584 _0538_
*585 _0539_
*586 _0540_
*587 _0541_
*588 _0542_
*589 _0543_
*590 _0544_
*591 _0545_
*592 _0546_
*593 _0547_
*594 _0548_
*595 _0549_
*596 _0550_
*597 _0551_
*598 _0552_
*599 _0553_
*600 _0554_
*601 _0555_
*602 _0556_
*603 _0557_
*604 _0558_
*605 _0559_
*606 _0560_
*607 _0561_
*608 _0562_
*609 _0563_
*610 _0564_
*611 _0565_
*612 _0566_
*613 _0567_
*614 _0568_
*615 _0569_
*616 _0570_
*617 _0571_
*618 _0572_
*619 _0573_
*620 _0574_
*621 _0575_
*622 _0576_
*623 _0577_
*624 _0578_
*625 _0579_
*626 _0580_
*627 _0581_
*628 _0582_
*629 _0583_
*630 _0584_
*631 _0585_
*632 _0586_
*633 _0587_
*634 _0588_
*635 _0589_
*636 _0590_
*637 _0591_
*638 _0592_
*639 _0593_
*640 _0594_
*641 _0595_
*642 _0596_
*643 _0597_
*644 _0598_
*645 _0599_
*646 _0600_
*647 _0601_
*648 _0602_
*649 _0603_
*650 _0604_
*651 _0605_
*652 _0606_
*653 _0607_
*654 _0608_
*655 _0609_
*656 _0610_
*657 _0611_
*658 _0612_
*659 _0613_
*660 _0614_
*661 _0615_
*662 _0616_
*663 _0617_
*664 _0618_
*665 _0619_
*666 _0620_
*667 _0621_
*668 _0622_
*669 _0623_
*670 _0624_
*671 _0625_
*672 _0626_
*673 _0627_
*674 _0628_
*675 _0629_
*676 _0630_
*677 _0631_
*678 _0632_
*679 _0633_
*680 _0634_
*681 _0635_
*682 _0636_
*683 _0637_
*684 _0638_
*685 _0639_
*686 _0640_
*687 _0641_
*688 _0642_
*689 _0643_
*690 _0644_
*691 _0645_
*692 _0646_
*693 _0647_
*694 _0648_
*695 _0649_
*696 _0650_
*697 _0651_
*698 _0652_
*699 _0653_
*700 _0654_
*701 _0655_
*702 _0656_
*703 _0657_
*704 _0658_
*705 _0659_
*706 _0660_
*707 _0661_
*708 _0662_
*709 _0663_
*710 _0664_
*711 _0665_
*712 _0666_
*713 _0667_
*714 _0668_
*715 _0669_
*716 _0670_
*717 _0671_
*718 _0672_
*719 _0673_
*720 _0674_
*721 _0675_
*722 _0676_
*723 _0677_
*724 _0678_
*725 _0679_
*726 _0680_
*727 _0681_
*728 _0682_
*729 _0683_
*730 _0684_
*731 _0685_
*732 _0686_
*733 _0687_
*734 _0688_
*735 _0689_
*736 _0690_
*737 _0691_
*738 _0692_
*739 _0693_
*740 _0694_
*741 _0695_
*742 _0696_
*743 _0697_
*744 _0698_
*745 _0699_
*746 _0700_
*747 _0701_
*748 _0702_
*749 _0703_
*750 _0704_
*751 _0705_
*752 _0706_
*753 _0707_
*754 _0708_
*755 _0709_
*756 _0710_
*757 _0711_
*758 _0712_
*759 _0713_
*760 _0714_
*761 _0715_
*762 _0716_
*763 _0717_
*764 _0718_
*765 _0719_
*766 _0720_
*767 _0721_
*768 _0722_
*769 _0723_
*770 _0724_
*771 _0725_
*772 _0726_
*773 _0727_
*774 _0728_
*775 _0729_
*776 _0730_
*777 _0731_
*778 _0732_
*779 _0733_
*780 _0734_
*781 _0735_
*782 _0736_
*783 _0737_
*784 _0738_
*785 _0739_
*786 _0740_
*787 _0741_
*788 _0742_
*789 _0743_
*790 _0744_
*791 _0745_
*792 _0746_
*793 _0747_
*794 _0748_
*795 _0749_
*796 _0750_
*797 _0751_
*798 _0752_
*799 _0753_
*800 _0754_
*801 _0755_
*802 _0756_
*803 _0757_
*804 _0758_
*805 _0759_
*806 _0760_
*807 _0761_
*808 _0762_
*809 _0763_
*810 _0764_
*811 _0765_
*812 _0766_
*813 _0767_
*814 _0768_
*815 _0769_
*816 _0770_
*817 _0771_
*818 _0772_
*819 _0773_
*820 _0774_
*821 _0775_
*822 _0776_
*823 _0777_
*824 _0778_
*825 _0779_
*826 _0780_
*827 _0781_
*828 _0782_
*829 _0783_
*830 _0784_
*831 _0785_
*832 _0786_
*833 _0787_
*834 _0788_
*835 _0789_
*836 _0790_
*837 _0791_
*838 _0792_
*839 _0793_
*840 _0794_
*841 _0795_
*842 _0796_
*843 _0797_
*844 _0798_
*845 _0799_
*846 _0800_
*847 _0801_
*848 _0802_
*849 _0803_
*850 _0804_
*851 _0805_
*852 _0806_
*853 _0807_
*854 _0808_
*855 _0809_
*856 _0810_
*857 _0811_
*858 _0812_
*859 _0813_
*860 _0814_
*861 _0815_
*862 _0816_
*863 _0817_
*864 _0818_
*865 _0819_
*866 _0820_
*867 _0821_
*868 _0822_
*869 _0823_
*870 _0824_
*871 _0825_
*872 _0826_
*873 _0827_
*874 _0828_
*875 _0829_
*876 _0830_
*877 _0831_
*878 _0832_
*879 _0833_
*880 _0834_
*881 _0835_
*882 _0836_
*883 _0837_
*884 _0838_
*885 _0839_
*886 _0840_
*887 _0841_
*888 _0842_
*889 _0843_
*890 _0844_
*891 _0845_
*892 _0846_
*893 _0847_
*894 _0848_
*895 _0849_
*896 _0850_
*897 _0851_
*898 _0852_
*899 _0853_
*900 _0854_
*901 _0855_
*902 _0856_
*903 _0857_
*904 _0858_
*905 _0859_
*906 _0860_
*907 _0861_
*908 _0862_
*909 _0863_
*910 _0864_
*911 _0865_
*912 _0866_
*913 _0867_
*914 _0868_
*915 _0869_
*916 _0870_
*917 _0871_
*918 _0872_
*919 _0873_
*920 _0874_
*921 _0875_
*922 _0876_
*923 _0877_
*924 _0878_
*925 _0879_
*926 _0880_
*927 _0881_
*928 _0882_
*929 _0883_
*930 _0884_
*931 _0885_
*932 _0886_
*933 _0887_
*934 _0888_
*935 _0889_
*936 _0890_
*937 _0891_
*938 _0892_
*939 _0893_
*940 _0894_
*941 _0895_
*942 _0896_
*943 _0897_
*944 _0898_
*945 _0899_
*946 _0900_
*947 _0901_
*948 _0902_
*949 _0903_
*950 _0904_
*951 _0905_
*952 _0906_
*953 _0907_
*954 _0908_
*955 _0909_
*956 _0910_
*957 _0911_
*958 cfg0\[0\]
*959 cfg0\[10\]
*960 cfg0\[11\]
*961 cfg0\[12\]
*962 cfg0\[1\]
*963 cfg0\[2\]
*964 cfg0\[3\]
*965 cfg0\[4\]
*966 cfg0\[5\]
*967 cfg0\[6\]
*968 cfg0\[7\]
*969 cfg0\[8\]
*970 cfg0\[9\]
*971 cfg1\[0\]
*972 cfg1\[10\]
*973 cfg1\[11\]
*974 cfg1\[12\]
*975 cfg1\[1\]
*976 cfg1\[2\]
*977 cfg1\[3\]
*978 cfg1\[4\]
*979 cfg1\[5\]
*980 cfg1\[6\]
*981 cfg1\[7\]
*982 cfg1\[8\]
*983 cfg1\[9\]
*984 cfg2\[0\]
*985 cfg2\[1\]
*986 cfg2\[2\]
*987 cfg2\[3\]
*988 cfg2\[4\]
*989 cfg2\[5\]
*990 cfg2\[6\]
*991 cfg2\[7\]
*992 cfg2\[8\]
*993 cfg3\[0\]
*994 cfg3\[1\]
*995 cfg3\[2\]
*996 cfg3\[3\]
*997 cfg3\[4\]
*998 cfg3\[5\]
*999 cfg3\[6\]
*1000 cfg3\[7\]
*1001 cfg3\[8\]
*1002 cfg4\[0\]
*1003 cfg4\[1\]
*1004 cfg4\[2\]
*1005 cfg4\[3\]
*1006 cfg4\[4\]
*1007 cfg4\[5\]
*1008 cfg4\[6\]
*1009 cfg4\[7\]
*1010 cfg4\[8\]
*1011 cfg_in_prev_strobe
*1012 cfg_in_strobe
*1013 clknet_0_clk
*1014 clknet_4_0_0_clk
*1015 clknet_4_10_0_clk
*1016 clknet_4_11_0_clk
*1017 clknet_4_12_0_clk
*1018 clknet_4_13_0_clk
*1019 clknet_4_14_0_clk
*1020 clknet_4_15_0_clk
*1021 clknet_4_1_0_clk
*1022 clknet_4_2_0_clk
*1023 clknet_4_3_0_clk
*1024 clknet_4_4_0_clk
*1025 clknet_4_5_0_clk
*1026 clknet_4_6_0_clk
*1027 clknet_4_7_0_clk
*1028 clknet_4_8_0_clk
*1029 clknet_4_9_0_clk
*1030 do_mod\[0\]
*1031 do_mod\[1\]
*1032 do_mod\[2\]
*1033 mod_counter_state\[0\]\[0\]
*1034 mod_counter_state\[0\]\[1\]
*1035 mod_counter_state\[0\]\[2\]
*1036 mod_counter_state\[0\]\[3\]
*1037 mod_counter_state\[0\]\[4\]
*1038 mod_counter_state\[0\]\[5\]
*1039 mod_counter_state\[0\]\[6\]
*1040 mod_counter_state\[1\]\[0\]
*1041 mod_counter_state\[1\]\[1\]
*1042 mod_counter_state\[1\]\[2\]
*1043 mod_counter_state\[1\]\[3\]
*1044 mod_counter_state\[1\]\[4\]
*1045 mod_counter_state\[1\]\[5\]
*1046 mod_counter_state\[1\]\[6\]
*1047 mod_counter_state\[2\]\[0\]
*1048 mod_counter_state\[2\]\[1\]
*1049 mod_counter_state\[2\]\[2\]
*1050 mod_counter_state\[2\]\[3\]
*1051 mod_counter_state\[2\]\[4\]
*1052 mod_counter_state\[2\]\[5\]
*1053 mod_counter_state\[2\]\[6\]
*1054 mod_index\[0\]
*1055 mod_index\[1\]
*1056 net1
*1057 net10
*1058 net100
*1059 net101
*1060 net102
*1061 net103
*1062 net104
*1063 net105
*1064 net106
*1065 net107
*1066 net108
*1067 net109
*1068 net11
*1069 net110
*1070 net111
*1071 net112
*1072 net113
*1073 net114
*1074 net115
*1075 net116
*1076 net117
*1077 net118
*1078 net119
*1079 net12
*1080 net120
*1081 net121
*1082 net122
*1083 net123
*1084 net124
*1085 net125
*1086 net126
*1087 net127
*1088 net128
*1089 net129
*1090 net13
*1091 net130
*1092 net131
*1093 net132
*1094 net133
*1095 net134
*1096 net135
*1097 net136
*1098 net137
*1099 net138
*1100 net139
*1101 net14
*1102 net140
*1103 net141
*1104 net142
*1105 net143
*1106 net144
*1107 net145
*1108 net146
*1109 net147
*1110 net148
*1111 net149
*1112 net15
*1113 net150
*1114 net151
*1115 net152
*1116 net153
*1117 net154
*1118 net155
*1119 net156
*1120 net157
*1121 net158
*1122 net159
*1123 net16
*1124 net160
*1125 net161
*1126 net162
*1127 net163
*1128 net164
*1129 net165
*1130 net166
*1131 net17
*1132 net2
*1133 net3
*1134 net34
*1135 net35
*1136 net36
*1137 net37
*1138 net38
*1139 net39
*1140 net4
*1141 net40
*1142 net41
*1143 net42
*1144 net43
*1145 net44
*1146 net45
*1147 net46
*1148 net47
*1149 net48
*1150 net49
*1151 net5
*1152 net50
*1153 net51
*1154 net52
*1155 net53
*1156 net54
*1157 net55
*1158 net56
*1159 net57
*1160 net58
*1161 net59
*1162 net6
*1163 net60
*1164 net61
*1165 net62
*1166 net63
*1167 net64
*1168 net65
*1169 net66
*1170 net67
*1171 net68
*1172 net69
*1173 net7
*1174 net70
*1175 net71
*1176 net72
*1177 net73
*1178 net74
*1179 net75
*1180 net76
*1181 net77
*1182 net78
*1183 net79
*1184 net8
*1185 net80
*1186 net81
*1187 net82
*1188 net83
*1189 net84
*1190 net85
*1191 net86
*1192 net87
*1193 net88
*1194 net89
*1195 net9
*1196 net90
*1197 net91
*1198 net92
*1199 net93
*1200 net94
*1201 net95
*1202 net96
*1203 net97
*1204 net98
*1205 net99
*1206 oct_counter\[0\]
*1207 oct_counter\[10\]
*1208 oct_counter\[11\]
*1209 oct_counter\[12\]
*1210 oct_counter\[13\]
*1211 oct_counter\[1\]
*1212 oct_counter\[2\]
*1213 oct_counter\[3\]
*1214 oct_counter\[4\]
*1215 oct_counter\[5\]
*1216 oct_counter\[6\]
*1217 oct_counter\[7\]
*1218 oct_counter\[8\]
*1219 oct_counter\[9\]
*1220 saw0\[0\]
*1221 saw0\[1\]
*1222 saw1\[0\]
*1223 saw1\[1\]
*1224 saw_counter_state\[0\]\[0\]
*1225 saw_counter_state\[0\]\[1\]
*1226 saw_counter_state\[0\]\[2\]
*1227 saw_counter_state\[0\]\[3\]
*1228 saw_counter_state\[0\]\[4\]
*1229 saw_counter_state\[0\]\[5\]
*1230 saw_counter_state\[0\]\[6\]
*1231 saw_counter_state\[0\]\[7\]
*1232 saw_counter_state\[0\]\[8\]
*1233 saw_counter_state\[0\]\[9\]
*1234 saw_counter_state\[1\]\[0\]
*1235 saw_counter_state\[1\]\[1\]
*1236 saw_counter_state\[1\]\[2\]
*1237 saw_counter_state\[1\]\[3\]
*1238 saw_counter_state\[1\]\[4\]
*1239 saw_counter_state\[1\]\[5\]
*1240 saw_counter_state\[1\]\[6\]
*1241 saw_counter_state\[1\]\[7\]
*1242 saw_counter_state\[1\]\[8\]
*1243 saw_counter_state\[1\]\[9\]
*1244 state\[2\]
*1245 strobe_sync\[1\]
*1246 v\[0\]
*1247 v\[10\]
*1248 v\[11\]
*1249 v\[12\]
*1250 v\[13\]
*1251 v\[14\]
*1252 v\[15\]
*1253 v\[16\]
*1254 v\[17\]
*1255 v\[18\]
*1256 v\[19\]
*1257 v\[1\]
*1258 v\[2\]
*1259 v\[3\]
*1260 v\[4\]
*1261 v\[5\]
*1262 v\[6\]
*1263 v\[7\]
*1264 v\[8\]
*1265 v\[9\]
*1266 y\[0\]
*1267 y\[10\]
*1268 y\[11\]
*1269 y\[12\]
*1270 y\[13\]
*1271 y\[14\]
*1272 y\[15\]
*1273 y\[16\]
*1274 y\[17\]
*1275 y\[18\]
*1276 y\[19\]
*1277 y\[1\]
*1278 y\[2\]
*1279 y\[3\]
*1280 y\[4\]
*1281 y\[5\]
*1282 y\[6\]
*1283 y\[7\]
*1284 y\[8\]
*1285 y\[9\]
*1286 ANTENNA_1
*1287 ANTENNA_2
*1288 ANTENNA_3
*1289 ANTENNA_4
*1290 ANTENNA_5
*1291 FILLER_0_0_109
*1292 FILLER_0_0_113
*1293 FILLER_0_0_125
*1294 FILLER_0_0_137
*1295 FILLER_0_0_141
*1296 FILLER_0_0_15
*1297 FILLER_0_0_153
*1298 FILLER_0_0_165
*1299 FILLER_0_0_169
*1300 FILLER_0_0_181
*1301 FILLER_0_0_193
*1302 FILLER_0_0_197
*1303 FILLER_0_0_209
*1304 FILLER_0_0_221
*1305 FILLER_0_0_225
*1306 FILLER_0_0_237
*1307 FILLER_0_0_249
*1308 FILLER_0_0_253
*1309 FILLER_0_0_265
*1310 FILLER_0_0_27
*1311 FILLER_0_0_277
*1312 FILLER_0_0_281
*1313 FILLER_0_0_29
*1314 FILLER_0_0_293
*1315 FILLER_0_0_3
*1316 FILLER_0_0_305
*1317 FILLER_0_0_309
*1318 FILLER_0_0_321
*1319 FILLER_0_0_333
*1320 FILLER_0_0_337
*1321 FILLER_0_0_349
*1322 FILLER_0_0_41
*1323 FILLER_0_0_53
*1324 FILLER_0_0_57
*1325 FILLER_0_0_69
*1326 FILLER_0_0_81
*1327 FILLER_0_0_85
*1328 FILLER_0_0_97
*1329 FILLER_0_10_109
*1330 FILLER_0_10_121
*1331 FILLER_0_10_133
*1332 FILLER_0_10_139
*1333 FILLER_0_10_141
*1334 FILLER_0_10_15
*1335 FILLER_0_10_153
*1336 FILLER_0_10_165
*1337 FILLER_0_10_177
*1338 FILLER_0_10_189
*1339 FILLER_0_10_195
*1340 FILLER_0_10_197
*1341 FILLER_0_10_209
*1342 FILLER_0_10_221
*1343 FILLER_0_10_233
*1344 FILLER_0_10_245
*1345 FILLER_0_10_251
*1346 FILLER_0_10_253
*1347 FILLER_0_10_265
*1348 FILLER_0_10_27
*1349 FILLER_0_10_277
*1350 FILLER_0_10_289
*1351 FILLER_0_10_29
*1352 FILLER_0_10_3
*1353 FILLER_0_10_301
*1354 FILLER_0_10_307
*1355 FILLER_0_10_309
*1356 FILLER_0_10_321
*1357 FILLER_0_10_333
*1358 FILLER_0_10_345
*1359 FILLER_0_10_41
*1360 FILLER_0_10_53
*1361 FILLER_0_10_65
*1362 FILLER_0_10_77
*1363 FILLER_0_10_83
*1364 FILLER_0_10_85
*1365 FILLER_0_10_97
*1366 FILLER_0_11_105
*1367 FILLER_0_11_111
*1368 FILLER_0_11_113
*1369 FILLER_0_11_125
*1370 FILLER_0_11_137
*1371 FILLER_0_11_149
*1372 FILLER_0_11_15
*1373 FILLER_0_11_161
*1374 FILLER_0_11_167
*1375 FILLER_0_11_169
*1376 FILLER_0_11_181
*1377 FILLER_0_11_193
*1378 FILLER_0_11_205
*1379 FILLER_0_11_217
*1380 FILLER_0_11_223
*1381 FILLER_0_11_225
*1382 FILLER_0_11_237
*1383 FILLER_0_11_249
*1384 FILLER_0_11_261
*1385 FILLER_0_11_27
*1386 FILLER_0_11_273
*1387 FILLER_0_11_279
*1388 FILLER_0_11_281
*1389 FILLER_0_11_293
*1390 FILLER_0_11_3
*1391 FILLER_0_11_305
*1392 FILLER_0_11_317
*1393 FILLER_0_11_329
*1394 FILLER_0_11_335
*1395 FILLER_0_11_337
*1396 FILLER_0_11_349
*1397 FILLER_0_11_39
*1398 FILLER_0_11_51
*1399 FILLER_0_11_55
*1400 FILLER_0_11_57
*1401 FILLER_0_11_69
*1402 FILLER_0_11_81
*1403 FILLER_0_11_93
*1404 FILLER_0_12_109
*1405 FILLER_0_12_121
*1406 FILLER_0_12_133
*1407 FILLER_0_12_139
*1408 FILLER_0_12_141
*1409 FILLER_0_12_15
*1410 FILLER_0_12_153
*1411 FILLER_0_12_165
*1412 FILLER_0_12_177
*1413 FILLER_0_12_189
*1414 FILLER_0_12_195
*1415 FILLER_0_12_197
*1416 FILLER_0_12_209
*1417 FILLER_0_12_221
*1418 FILLER_0_12_233
*1419 FILLER_0_12_245
*1420 FILLER_0_12_251
*1421 FILLER_0_12_253
*1422 FILLER_0_12_265
*1423 FILLER_0_12_27
*1424 FILLER_0_12_277
*1425 FILLER_0_12_289
*1426 FILLER_0_12_29
*1427 FILLER_0_12_3
*1428 FILLER_0_12_301
*1429 FILLER_0_12_307
*1430 FILLER_0_12_309
*1431 FILLER_0_12_321
*1432 FILLER_0_12_333
*1433 FILLER_0_12_345
*1434 FILLER_0_12_41
*1435 FILLER_0_12_53
*1436 FILLER_0_12_65
*1437 FILLER_0_12_77
*1438 FILLER_0_12_83
*1439 FILLER_0_12_85
*1440 FILLER_0_12_97
*1441 FILLER_0_13_105
*1442 FILLER_0_13_111
*1443 FILLER_0_13_113
*1444 FILLER_0_13_125
*1445 FILLER_0_13_137
*1446 FILLER_0_13_149
*1447 FILLER_0_13_15
*1448 FILLER_0_13_161
*1449 FILLER_0_13_167
*1450 FILLER_0_13_169
*1451 FILLER_0_13_181
*1452 FILLER_0_13_193
*1453 FILLER_0_13_205
*1454 FILLER_0_13_217
*1455 FILLER_0_13_223
*1456 FILLER_0_13_225
*1457 FILLER_0_13_237
*1458 FILLER_0_13_249
*1459 FILLER_0_13_261
*1460 FILLER_0_13_27
*1461 FILLER_0_13_273
*1462 FILLER_0_13_279
*1463 FILLER_0_13_281
*1464 FILLER_0_13_293
*1465 FILLER_0_13_3
*1466 FILLER_0_13_305
*1467 FILLER_0_13_317
*1468 FILLER_0_13_329
*1469 FILLER_0_13_335
*1470 FILLER_0_13_337
*1471 FILLER_0_13_349
*1472 FILLER_0_13_39
*1473 FILLER_0_13_51
*1474 FILLER_0_13_55
*1475 FILLER_0_13_57
*1476 FILLER_0_13_69
*1477 FILLER_0_13_81
*1478 FILLER_0_13_93
*1479 FILLER_0_14_109
*1480 FILLER_0_14_121
*1481 FILLER_0_14_133
*1482 FILLER_0_14_139
*1483 FILLER_0_14_141
*1484 FILLER_0_14_15
*1485 FILLER_0_14_153
*1486 FILLER_0_14_165
*1487 FILLER_0_14_177
*1488 FILLER_0_14_189
*1489 FILLER_0_14_195
*1490 FILLER_0_14_197
*1491 FILLER_0_14_209
*1492 FILLER_0_14_221
*1493 FILLER_0_14_233
*1494 FILLER_0_14_245
*1495 FILLER_0_14_251
*1496 FILLER_0_14_253
*1497 FILLER_0_14_265
*1498 FILLER_0_14_27
*1499 FILLER_0_14_277
*1500 FILLER_0_14_289
*1501 FILLER_0_14_29
*1502 FILLER_0_14_3
*1503 FILLER_0_14_301
*1504 FILLER_0_14_307
*1505 FILLER_0_14_309
*1506 FILLER_0_14_321
*1507 FILLER_0_14_333
*1508 FILLER_0_14_345
*1509 FILLER_0_14_41
*1510 FILLER_0_14_53
*1511 FILLER_0_14_65
*1512 FILLER_0_14_77
*1513 FILLER_0_14_83
*1514 FILLER_0_14_85
*1515 FILLER_0_14_97
*1516 FILLER_0_15_105
*1517 FILLER_0_15_111
*1518 FILLER_0_15_113
*1519 FILLER_0_15_125
*1520 FILLER_0_15_137
*1521 FILLER_0_15_149
*1522 FILLER_0_15_15
*1523 FILLER_0_15_161
*1524 FILLER_0_15_167
*1525 FILLER_0_15_169
*1526 FILLER_0_15_181
*1527 FILLER_0_15_193
*1528 FILLER_0_15_205
*1529 FILLER_0_15_217
*1530 FILLER_0_15_223
*1531 FILLER_0_15_225
*1532 FILLER_0_15_237
*1533 FILLER_0_15_249
*1534 FILLER_0_15_261
*1535 FILLER_0_15_27
*1536 FILLER_0_15_273
*1537 FILLER_0_15_279
*1538 FILLER_0_15_281
*1539 FILLER_0_15_293
*1540 FILLER_0_15_3
*1541 FILLER_0_15_305
*1542 FILLER_0_15_317
*1543 FILLER_0_15_329
*1544 FILLER_0_15_335
*1545 FILLER_0_15_337
*1546 FILLER_0_15_349
*1547 FILLER_0_15_39
*1548 FILLER_0_15_51
*1549 FILLER_0_15_55
*1550 FILLER_0_15_57
*1551 FILLER_0_15_69
*1552 FILLER_0_15_81
*1553 FILLER_0_15_93
*1554 FILLER_0_16_109
*1555 FILLER_0_16_121
*1556 FILLER_0_16_133
*1557 FILLER_0_16_139
*1558 FILLER_0_16_141
*1559 FILLER_0_16_15
*1560 FILLER_0_16_153
*1561 FILLER_0_16_165
*1562 FILLER_0_16_177
*1563 FILLER_0_16_189
*1564 FILLER_0_16_195
*1565 FILLER_0_16_197
*1566 FILLER_0_16_209
*1567 FILLER_0_16_221
*1568 FILLER_0_16_233
*1569 FILLER_0_16_245
*1570 FILLER_0_16_251
*1571 FILLER_0_16_253
*1572 FILLER_0_16_265
*1573 FILLER_0_16_27
*1574 FILLER_0_16_277
*1575 FILLER_0_16_289
*1576 FILLER_0_16_29
*1577 FILLER_0_16_3
*1578 FILLER_0_16_301
*1579 FILLER_0_16_307
*1580 FILLER_0_16_309
*1581 FILLER_0_16_321
*1582 FILLER_0_16_333
*1583 FILLER_0_16_345
*1584 FILLER_0_16_41
*1585 FILLER_0_16_53
*1586 FILLER_0_16_65
*1587 FILLER_0_16_77
*1588 FILLER_0_16_83
*1589 FILLER_0_16_85
*1590 FILLER_0_16_97
*1591 FILLER_0_17_105
*1592 FILLER_0_17_111
*1593 FILLER_0_17_113
*1594 FILLER_0_17_125
*1595 FILLER_0_17_137
*1596 FILLER_0_17_149
*1597 FILLER_0_17_15
*1598 FILLER_0_17_161
*1599 FILLER_0_17_167
*1600 FILLER_0_17_169
*1601 FILLER_0_17_181
*1602 FILLER_0_17_193
*1603 FILLER_0_17_205
*1604 FILLER_0_17_217
*1605 FILLER_0_17_223
*1606 FILLER_0_17_225
*1607 FILLER_0_17_237
*1608 FILLER_0_17_249
*1609 FILLER_0_17_261
*1610 FILLER_0_17_27
*1611 FILLER_0_17_273
*1612 FILLER_0_17_279
*1613 FILLER_0_17_281
*1614 FILLER_0_17_293
*1615 FILLER_0_17_3
*1616 FILLER_0_17_305
*1617 FILLER_0_17_317
*1618 FILLER_0_17_329
*1619 FILLER_0_17_335
*1620 FILLER_0_17_337
*1621 FILLER_0_17_349
*1622 FILLER_0_17_39
*1623 FILLER_0_17_51
*1624 FILLER_0_17_55
*1625 FILLER_0_17_57
*1626 FILLER_0_17_69
*1627 FILLER_0_17_81
*1628 FILLER_0_17_93
*1629 FILLER_0_18_109
*1630 FILLER_0_18_121
*1631 FILLER_0_18_133
*1632 FILLER_0_18_139
*1633 FILLER_0_18_141
*1634 FILLER_0_18_15
*1635 FILLER_0_18_153
*1636 FILLER_0_18_165
*1637 FILLER_0_18_177
*1638 FILLER_0_18_189
*1639 FILLER_0_18_195
*1640 FILLER_0_18_197
*1641 FILLER_0_18_209
*1642 FILLER_0_18_221
*1643 FILLER_0_18_233
*1644 FILLER_0_18_245
*1645 FILLER_0_18_251
*1646 FILLER_0_18_253
*1647 FILLER_0_18_265
*1648 FILLER_0_18_27
*1649 FILLER_0_18_277
*1650 FILLER_0_18_289
*1651 FILLER_0_18_29
*1652 FILLER_0_18_3
*1653 FILLER_0_18_301
*1654 FILLER_0_18_307
*1655 FILLER_0_18_309
*1656 FILLER_0_18_321
*1657 FILLER_0_18_333
*1658 FILLER_0_18_345
*1659 FILLER_0_18_41
*1660 FILLER_0_18_53
*1661 FILLER_0_18_65
*1662 FILLER_0_18_77
*1663 FILLER_0_18_83
*1664 FILLER_0_18_85
*1665 FILLER_0_18_97
*1666 FILLER_0_19_105
*1667 FILLER_0_19_111
*1668 FILLER_0_19_113
*1669 FILLER_0_19_125
*1670 FILLER_0_19_137
*1671 FILLER_0_19_149
*1672 FILLER_0_19_15
*1673 FILLER_0_19_161
*1674 FILLER_0_19_167
*1675 FILLER_0_19_169
*1676 FILLER_0_19_181
*1677 FILLER_0_19_193
*1678 FILLER_0_19_205
*1679 FILLER_0_19_217
*1680 FILLER_0_19_223
*1681 FILLER_0_19_225
*1682 FILLER_0_19_237
*1683 FILLER_0_19_249
*1684 FILLER_0_19_261
*1685 FILLER_0_19_27
*1686 FILLER_0_19_273
*1687 FILLER_0_19_279
*1688 FILLER_0_19_281
*1689 FILLER_0_19_293
*1690 FILLER_0_19_3
*1691 FILLER_0_19_305
*1692 FILLER_0_19_317
*1693 FILLER_0_19_329
*1694 FILLER_0_19_335
*1695 FILLER_0_19_337
*1696 FILLER_0_19_349
*1697 FILLER_0_19_39
*1698 FILLER_0_19_51
*1699 FILLER_0_19_55
*1700 FILLER_0_19_57
*1701 FILLER_0_19_69
*1702 FILLER_0_19_81
*1703 FILLER_0_19_93
*1704 FILLER_0_1_105
*1705 FILLER_0_1_111
*1706 FILLER_0_1_113
*1707 FILLER_0_1_125
*1708 FILLER_0_1_137
*1709 FILLER_0_1_149
*1710 FILLER_0_1_15
*1711 FILLER_0_1_161
*1712 FILLER_0_1_167
*1713 FILLER_0_1_169
*1714 FILLER_0_1_181
*1715 FILLER_0_1_193
*1716 FILLER_0_1_205
*1717 FILLER_0_1_217
*1718 FILLER_0_1_223
*1719 FILLER_0_1_225
*1720 FILLER_0_1_237
*1721 FILLER_0_1_249
*1722 FILLER_0_1_261
*1723 FILLER_0_1_27
*1724 FILLER_0_1_273
*1725 FILLER_0_1_279
*1726 FILLER_0_1_281
*1727 FILLER_0_1_293
*1728 FILLER_0_1_3
*1729 FILLER_0_1_305
*1730 FILLER_0_1_317
*1731 FILLER_0_1_329
*1732 FILLER_0_1_335
*1733 FILLER_0_1_337
*1734 FILLER_0_1_349
*1735 FILLER_0_1_39
*1736 FILLER_0_1_51
*1737 FILLER_0_1_55
*1738 FILLER_0_1_57
*1739 FILLER_0_1_69
*1740 FILLER_0_1_81
*1741 FILLER_0_1_93
*1742 FILLER_0_20_109
*1743 FILLER_0_20_121
*1744 FILLER_0_20_133
*1745 FILLER_0_20_139
*1746 FILLER_0_20_141
*1747 FILLER_0_20_15
*1748 FILLER_0_20_153
*1749 FILLER_0_20_165
*1750 FILLER_0_20_177
*1751 FILLER_0_20_189
*1752 FILLER_0_20_195
*1753 FILLER_0_20_197
*1754 FILLER_0_20_209
*1755 FILLER_0_20_221
*1756 FILLER_0_20_233
*1757 FILLER_0_20_245
*1758 FILLER_0_20_251
*1759 FILLER_0_20_253
*1760 FILLER_0_20_265
*1761 FILLER_0_20_27
*1762 FILLER_0_20_277
*1763 FILLER_0_20_289
*1764 FILLER_0_20_29
*1765 FILLER_0_20_3
*1766 FILLER_0_20_301
*1767 FILLER_0_20_307
*1768 FILLER_0_20_309
*1769 FILLER_0_20_321
*1770 FILLER_0_20_333
*1771 FILLER_0_20_345
*1772 FILLER_0_20_41
*1773 FILLER_0_20_53
*1774 FILLER_0_20_65
*1775 FILLER_0_20_77
*1776 FILLER_0_20_83
*1777 FILLER_0_20_85
*1778 FILLER_0_20_97
*1779 FILLER_0_21_105
*1780 FILLER_0_21_111
*1781 FILLER_0_21_113
*1782 FILLER_0_21_125
*1783 FILLER_0_21_137
*1784 FILLER_0_21_149
*1785 FILLER_0_21_15
*1786 FILLER_0_21_161
*1787 FILLER_0_21_167
*1788 FILLER_0_21_169
*1789 FILLER_0_21_181
*1790 FILLER_0_21_193
*1791 FILLER_0_21_205
*1792 FILLER_0_21_217
*1793 FILLER_0_21_223
*1794 FILLER_0_21_225
*1795 FILLER_0_21_233
*1796 FILLER_0_21_239
*1797 FILLER_0_21_251
*1798 FILLER_0_21_263
*1799 FILLER_0_21_27
*1800 FILLER_0_21_275
*1801 FILLER_0_21_279
*1802 FILLER_0_21_281
*1803 FILLER_0_21_293
*1804 FILLER_0_21_3
*1805 FILLER_0_21_305
*1806 FILLER_0_21_317
*1807 FILLER_0_21_329
*1808 FILLER_0_21_335
*1809 FILLER_0_21_337
*1810 FILLER_0_21_349
*1811 FILLER_0_21_39
*1812 FILLER_0_21_51
*1813 FILLER_0_21_55
*1814 FILLER_0_21_57
*1815 FILLER_0_21_69
*1816 FILLER_0_21_81
*1817 FILLER_0_21_93
*1818 FILLER_0_22_109
*1819 FILLER_0_22_121
*1820 FILLER_0_22_133
*1821 FILLER_0_22_139
*1822 FILLER_0_22_141
*1823 FILLER_0_22_15
*1824 FILLER_0_22_153
*1825 FILLER_0_22_165
*1826 FILLER_0_22_177
*1827 FILLER_0_22_189
*1828 FILLER_0_22_195
*1829 FILLER_0_22_197
*1830 FILLER_0_22_209
*1831 FILLER_0_22_221
*1832 FILLER_0_22_248
*1833 FILLER_0_22_258
*1834 FILLER_0_22_27
*1835 FILLER_0_22_270
*1836 FILLER_0_22_282
*1837 FILLER_0_22_29
*1838 FILLER_0_22_294
*1839 FILLER_0_22_3
*1840 FILLER_0_22_306
*1841 FILLER_0_22_309
*1842 FILLER_0_22_321
*1843 FILLER_0_22_333
*1844 FILLER_0_22_345
*1845 FILLER_0_22_41
*1846 FILLER_0_22_53
*1847 FILLER_0_22_65
*1848 FILLER_0_22_77
*1849 FILLER_0_22_83
*1850 FILLER_0_22_85
*1851 FILLER_0_22_97
*1852 FILLER_0_23_105
*1853 FILLER_0_23_111
*1854 FILLER_0_23_113
*1855 FILLER_0_23_125
*1856 FILLER_0_23_137
*1857 FILLER_0_23_149
*1858 FILLER_0_23_15
*1859 FILLER_0_23_161
*1860 FILLER_0_23_167
*1861 FILLER_0_23_169
*1862 FILLER_0_23_181
*1863 FILLER_0_23_193
*1864 FILLER_0_23_201
*1865 FILLER_0_23_219
*1866 FILLER_0_23_223
*1867 FILLER_0_23_265
*1868 FILLER_0_23_27
*1869 FILLER_0_23_277
*1870 FILLER_0_23_281
*1871 FILLER_0_23_293
*1872 FILLER_0_23_3
*1873 FILLER_0_23_305
*1874 FILLER_0_23_317
*1875 FILLER_0_23_329
*1876 FILLER_0_23_335