*SPEF "ieee 1481-1999"
*DESIGN "tt_um_alu_chip"
*DATE "11:11:11 Fri 11 11, 1111"
*VENDOR "OpenRCX"
*PROGRAM "Parallel Extraction"
*VERSION "1.0"
*DESIGN_FLOW "NAME_SCOPE LOCAL" "PIN_CAP NONE"
*DIVIDER /
*DELIMITER :
*BUS_DELIMITER []
*T_UNIT 1 NS
*C_UNIT 1 PF
*R_UNIT 1 OHM
*L_UNIT 1 HENRY

*NAME_MAP
*3 clk
*4 ena
*5 rst_n
*6 ui_in[0]
*7 ui_in[1]
*8 ui_in[2]
*9 ui_in[3]
*10 ui_in[4]
*11 ui_in[5]
*12 ui_in[6]
*13 ui_in[7]
*14 uio_in[0]
*15 uio_in[1]
*16 uio_in[2]
*17 uio_in[3]
*18 uio_in[4]
*19 uio_in[5]
*20 uio_in[6]
*21 uio_in[7]
*22 net15
*23 net16
*24 net17
*25 net18
*26 net24
*27 net25
*28 net26
*29 net27
*30 net19
*31 net20
*32 net21
*33 net22
*34 uio_out[4]
*35 uio_out[5]
*36 uio_out[6]
*37 uio_out[7]
*38 uo_out[0]
*39 uo_out[1]
*40 uo_out[2]
*41 uo_out[3]
*42 uo_out[4]
*43 uo_out[5]
*44 uo_out[6]
*45 net23
*46 _000_
*47 _001_
*48 _002_
*49 _003_
*50 _004_
*51 _005_
*52 _006_
*53 _007_
*54 _008_
*55 _009_
*56 _010_
*57 _011_
*58 _012_
*59 _013_
*60 _014_
*61 _015_
*62 _016_
*63 _017_
*64 _018_
*65 _019_
*66 _020_
*67 _021_
*68 _022_
*69 _023_
*70 _024_
*71 _025_
*72 _026_
*73 _027_
*74 _028_
*75 _029_
*76 _030_
*77 _031_
*78 _032_
*79 _033_
*80 _034_
*81 _035_
*82 _036_
*83 _037_
*84 _038_
*85 _039_
*86 _040_
*87 _041_
*88 _042_
*89 _043_
*90 _044_
*91 _045_
*92 _046_
*93 _047_
*94 _048_
*95 _049_
*96 _050_
*97 _051_
*98 _052_
*99 _053_
*100 _054_
*101 _055_
*102 _056_
*103 _057_
*104 _058_
*105 _059_
*106 _060_
*107 _061_
*108 _062_
*109 _063_
*110 _064_
*111 _065_
*112 _066_
*113 _067_
*114 _068_
*115 net1
*116 net10
*117 net11
*118 net12
*119 net13
*120 net14
*121 net2
*122 net3
*123 net4
*124 net5
*125 net6
*126 net7
*127 net8
*128 net9
*129 FILLER_0_0_109
*130 FILLER_0_0_113
*131 FILLER_0_0_125
*132 FILLER_0_0_137
*133 FILLER_0_0_141
*134 FILLER_0_0_15
*135 FILLER_0_0_153
*136 FILLER_0_0_165
*137 FILLER_0_0_169
*138 FILLER_0_0_181
*139 FILLER_0_0_193
*140 FILLER_0_0_197
*141 FILLER_0_0_209
*142 FILLER_0_0_221
*143 FILLER_0_0_225
*144 FILLER_0_0_237
*145 FILLER_0_0_249
*146 FILLER_0_0_253
*147 FILLER_0_0_265
*148 FILLER_0_0_27
*149 FILLER_0_0_277
*150 FILLER_0_0_281
*151 FILLER_0_0_29
*152 FILLER_0_0_293
*153 FILLER_0_0_3
*154 FILLER_0_0_305
*155 FILLER_0_0_309
*156 FILLER_0_0_321
*157 FILLER_0_0_333
*158 FILLER_0_0_337
*159 FILLER_0_0_349
*160 FILLER_0_0_41
*161 FILLER_0_0_53
*162 FILLER_0_0_57
*163 FILLER_0_0_69
*164 FILLER_0_0_81
*165 FILLER_0_0_85
*166 FILLER_0_0_97
*167 FILLER_0_10_109
*168 FILLER_0_10_121
*169 FILLER_0_10_133
*170 FILLER_0_10_139
*171 FILLER_0_10_141
*172 FILLER_0_10_15
*173 FILLER_0_10_153
*174 FILLER_0_10_165
*175 FILLER_0_10_177
*176 FILLER_0_10_189
*177 FILLER_0_10_195
*178 FILLER_0_10_197
*179 FILLER_0_10_209
*180 FILLER_0_10_221
*181 FILLER_0_10_233
*182 FILLER_0_10_245
*183 FILLER_0_10_251
*184 FILLER_0_10_253
*185 FILLER_0_10_265
*186 FILLER_0_10_27
*187 FILLER_0_10_277
*188 FILLER_0_10_289
*189 FILLER_0_10_29
*190 FILLER_0_10_3
*191 FILLER_0_10_301
*192 FILLER_0_10_307
*193 FILLER_0_10_309
*194 FILLER_0_10_321
*195 FILLER_0_10_333
*196 FILLER_0_10_345
*197 FILLER_0_10_41
*198 FILLER_0_10_53
*199 FILLER_0_10_65
*200 FILLER_0_10_77
*201 FILLER_0_10_83
*202 FILLER_0_10_85
*203 FILLER_0_10_97
*204 FILLER_0_11_105
*205 FILLER_0_11_111
*206 FILLER_0_11_113
*207 FILLER_0_11_125
*208 FILLER_0_11_137
*209 FILLER_0_11_149
*210 FILLER_0_11_15
*211 FILLER_0_11_161
*212 FILLER_0_11_167
*213 FILLER_0_11_169
*214 FILLER_0_11_181
*215 FILLER_0_11_193
*216 FILLER_0_11_205
*217 FILLER_0_11_217
*218 FILLER_0_11_223
*219 FILLER_0_11_225
*220 FILLER_0_11_237
*221 FILLER_0_11_249
*222 FILLER_0_11_261
*223 FILLER_0_11_27
*224 FILLER_0_11_273
*225 FILLER_0_11_279
*226 FILLER_0_11_281
*227 FILLER_0_11_293
*228 FILLER_0_11_3
*229 FILLER_0_11_305
*230 FILLER_0_11_317
*231 FILLER_0_11_329
*232 FILLER_0_11_335
*233 FILLER_0_11_337
*234 FILLER_0_11_349
*235 FILLER_0_11_39
*236 FILLER_0_11_51
*237 FILLER_0_11_55
*238 FILLER_0_11_57
*239 FILLER_0_11_69
*240 FILLER_0_11_81
*241 FILLER_0_11_93
*242 FILLER_0_12_109
*243 FILLER_0_12_121
*244 FILLER_0_12_133
*245 FILLER_0_12_139
*246 FILLER_0_12_141
*247 FILLER_0_12_15
*248 FILLER_0_12_153
*249 FILLER_0_12_165
*250 FILLER_0_12_177
*251 FILLER_0_12_189
*252 FILLER_0_12_195
*253 FILLER_0_12_197
*254 FILLER_0_12_209
*255 FILLER_0_12_221
*256 FILLER_0_12_233
*257 FILLER_0_12_245
*258 FILLER_0_12_251
*259 FILLER_0_12_253
*260 FILLER_0_12_265
*261 FILLER_0_12_27
*262 FILLER_0_12_277
*263 FILLER_0_12_289
*264 FILLER_0_12_29
*265 FILLER_0_12_3
*266 FILLER_0_12_301
*267 FILLER_0_12_307
*268 FILLER_0_12_309
*269 FILLER_0_12_321
*270 FILLER_0_12_333
*271 FILLER_0_12_345
*272 FILLER_0_12_41
*273 FILLER_0_12_53
*274 FILLER_0_12_65
*275 FILLER_0_12_77
*276 FILLER_0_12_83
*277 FILLER_0_12_85
*278 FILLER_0_12_97
*279 FILLER_0_13_105
*280 FILLER_0_13_111
*281 FILLER_0_13_113
*282 FILLER_0_13_125
*283 FILLER_0_13_137
*284 FILLER_0_13_149
*285 FILLER_0_13_15
*286 FILLER_0_13_161
*287 FILLER_0_13_167
*288 FILLER_0_13_169
*289 FILLER_0_13_181
*290 FILLER_0_13_193
*291 FILLER_0_13_205
*292 FILLER_0_13_217
*293 FILLER_0_13_223
*294 FILLER_0_13_225
*295 FILLER_0_13_237
*296 FILLER_0_13_249
*297 FILLER_0_13_261
*298 FILLER_0_13_27
*299 FILLER_0_13_273
*300 FILLER_0_13_279
*301 FILLER_0_13_281
*302 FILLER_0_13_293
*303 FILLER_0_13_3
*304 FILLER_0_13_305
*305 FILLER_0_13_317
*306 FILLER_0_13_329
*307 FILLER_0_13_335
*308 FILLER_0_13_337
*309 FILLER_0_13_349
*310 FILLER_0_13_39
*311 FILLER_0_13_51
*312 FILLER_0_13_55
*313 FILLER_0_13_57
*314 FILLER_0_13_69
*315 FILLER_0_13_81
*316 FILLER_0_13_93
*317 FILLER_0_14_109
*318 FILLER_0_14_121
*319 FILLER_0_14_133
*320 FILLER_0_14_139
*321 FILLER_0_14_141
*322 FILLER_0_14_15
*323 FILLER_0_14_153
*324 FILLER_0_14_165
*325 FILLER_0_14_177
*326 FILLER_0_14_189
*327 FILLER_0_14_195
*328 FILLER_0_14_197
*329 FILLER_0_14_209
*330 FILLER_0_14_221
*331 FILLER_0_14_233
*332 FILLER_0_14_245
*333 FILLER_0_14_251
*334 FILLER_0_14_253
*335 FILLER_0_14_265
*336 FILLER_0_14_27
*337 FILLER_0_14_277
*338 FILLER_0_14_289
*339 FILLER_0_14_29
*340 FILLER_0_14_3
*341 FILLER_0_14_301
*342 FILLER_0_14_307
*343 FILLER_0_14_309
*344 FILLER_0_14_321
*345 FILLER_0_14_333
*346 FILLER_0_14_345
*347 FILLER_0_14_41
*348 FILLER_0_14_53
*349 FILLER_0_14_65
*350 FILLER_0_14_77
*351 FILLER_0_14_83
*352 FILLER_0_14_85
*353 FILLER_0_14_97
*354 FILLER_0_15_105
*355 FILLER_0_15_111
*356 FILLER_0_15_113
*357 FILLER_0_15_125
*358 FILLER_0_15_137
*359 FILLER_0_15_149
*360 FILLER_0_15_15
*361 FILLER_0_15_161
*362 FILLER_0_15_167
*363 FILLER_0_15_169
*364 FILLER_0_15_181
*365 FILLER_0_15_193
*366 FILLER_0_15_205
*367 FILLER_0_15_217
*368 FILLER_0_15_223
*369 FILLER_0_15_225
*370 FILLER_0_15_237
*371 FILLER_0_15_249
*372 FILLER_0_15_261
*373 FILLER_0_15_27
*374 FILLER_0_15_273
*375 FILLER_0_15_279
*376 FILLER_0_15_281
*377 FILLER_0_15_293
*378 FILLER_0_15_3
*379 FILLER_0_15_305
*380 FILLER_0_15_317
*381 FILLER_0_15_329
*382 FILLER_0_15_335
*383 FILLER_0_15_337
*384 FILLER_0_15_349
*385 FILLER_0_15_39
*386 FILLER_0_15_51
*387 FILLER_0_15_55
*388 FILLER_0_15_57
*389 FILLER_0_15_69
*390 FILLER_0_15_81
*391 FILLER_0_15_93
*392 FILLER_0_16_109
*393 FILLER_0_16_121
*394 FILLER_0_16_133
*395 FILLER_0_16_139
*396 FILLER_0_16_141
*397 FILLER_0_16_15
*398 FILLER_0_16_153
*399 FILLER_0_16_165
*400 FILLER_0_16_177
*401 FILLER_0_16_189
*402 FILLER_0_16_195
*403 FILLER_0_16_197
*404 FILLER_0_16_209
*405 FILLER_0_16_221
*406 FILLER_0_16_233
*407 FILLER_0_16_245
*408 FILLER_0_16_251
*409 FILLER_0_16_253
*410 FILLER_0_16_265
*411 FILLER_0_16_27
*412 FILLER_0_16_277
*413 FILLER_0_16_289
*414 FILLER_0_16_29
*415 FILLER_0_16_3
*416 FILLER_0_16_301
*417 FILLER_0_16_307
*418 FILLER_0_16_309
*419 FILLER_0_16_321
*420 FILLER_0_16_333
*421 FILLER_0_16_345
*422 FILLER_0_16_41
*423 FILLER_0_16_53
*424 FILLER_0_16_65
*425 FILLER_0_16_77
*426 FILLER_0_16_83
*427 FILLER_0_16_85
*428 FILLER_0_16_97
*429 FILLER_0_17_105
*430 FILLER_0_17_111
*431 FILLER_0_17_113
*432 FILLER_0_17_125
*433 FILLER_0_17_137
*434 FILLER_0_17_149
*435 FILLER_0_17_15
*436 FILLER_0_17_161
*437 FILLER_0_17_167
*438 FILLER_0_17_169
*439 FILLER_0_17_181
*440 FILLER_0_17_193
*441 FILLER_0_17_205
*442 FILLER_0_17_217
*443 FILLER_0_17_223
*444 FILLER_0_17_225
*445 FILLER_0_17_237
*446 FILLER_0_17_249
*447 FILLER_0_17_261
*448 FILLER_0_17_27
*449 FILLER_0_17_273
*450 FILLER_0_17_279
*451 FILLER_0_17_281
*452 FILLER_0_17_293
*453 FILLER_0_17_3
*454 FILLER_0_17_305
*455 FILLER_0_17_317
*456 FILLER_0_17_329
*457 FILLER_0_17_335
*458 FILLER_0_17_337
*459 FILLER_0_17_349
*460 FILLER_0_17_39
*461 FILLER_0_17_51
*462 FILLER_0_17_55
*463 FILLER_0_17_57
*464 FILLER_0_17_69
*465 FILLER_0_17_81
*466 FILLER_0_17_93
*467 FILLER_0_18_109
*468 FILLER_0_18_121
*469 FILLER_0_18_133
*470 FILLER_0_18_139
*471 FILLER_0_18_141
*472 FILLER_0_18_15
*473 FILLER_0_18_153
*474 FILLER_0_18_165
*475 FILLER_0_18_177
*476 FILLER_0_18_189
*477 FILLER_0_18_195
*478 FILLER_0_18_197
*479 FILLER_0_18_209
*480 FILLER_0_18_221
*481 FILLER_0_18_233
*482 FILLER_0_18_245
*483 FILLER_0_18_251
*484 FILLER_0_18_253
*485 FILLER_0_18_265
*486 FILLER_0_18_27
*487 FILLER_0_18_277
*488 FILLER_0_18_289
*489 FILLER_0_18_29
*490 FILLER_0_18_3
*491 FILLER_0_18_301
*492 FILLER_0_18_307
*493 FILLER_0_18_309
*494 FILLER_0_18_321
*495 FILLER_0_18_333
*496 FILLER_0_18_345
*497 FILLER_0_18_41
*498 FILLER_0_18_53
*499 FILLER_0_18_65
*500 FILLER_0_18_77
*501 FILLER_0_18_83
*502 FILLER_0_18_85
*503 FILLER_0_18_97
*504 FILLER_0_19_105
*505 FILLER_0_19_111
*506 FILLER_0_19_113
*507 FILLER_0_19_125
*508 FILLER_0_19_137
*509 FILLER_0_19_149
*510 FILLER_0_19_15
*511 FILLER_0_19_161
*512 FILLER_0_19_167
*513 FILLER_0_19_169
*514 FILLER_0_19_181
*515 FILLER_0_19_193
*516 FILLER_0_19_205
*517 FILLER_0_19_217
*518 FILLER_0_19_223
*519 FILLER_0_19_225
*520 FILLER_0_19_237
*521 FILLER_0_19_249
*522 FILLER_0_19_261
*523 FILLER_0_19_27
*524 FILLER_0_19_273
*525 FILLER_0_19_279
*526 FILLER_0_19_281
*527 FILLER_0_19_293
*528 FILLER_0_19_3
*529 FILLER_0_19_305
*530 FILLER_0_19_317
*531 FILLER_0_19_329
*532 FILLER_0_19_335
*533 FILLER_0_19_337
*534 FILLER_0_19_349
*535 FILLER_0_19_39
*536 FILLER_0_19_51
*537 FILLER_0_19_55
*538 FILLER_0_19_57
*539 FILLER_0_19_69
*540 FILLER_0_19_81
*541 FILLER_0_19_93
*542 FILLER_0_1_105
*543 FILLER_0_1_111
*544 FILLER_0_1_113
*545 FILLER_0_1_125
*546 FILLER_0_1_137
*547 FILLER_0_1_149
*548 FILLER_0_1_15
*549 FILLER_0_1_161
*550 FILLER_0_1_167
*551 FILLER_0_1_169
*552 FILLER_0_1_181
*553 FILLER_0_1_193
*554 FILLER_0_1_205
*555 FILLER_0_1_217
*556 FILLER_0_1_223
*557 FILLER_0_1_225
*558 FILLER_0_1_237
*559 FILLER_0_1_249
*560 FILLER_0_1_261
*561 FILLER_0_1_27
*562 FILLER_0_1_273
*563 FILLER_0_1_279
*564 FILLER_0_1_281
*565 FILLER_0_1_293
*566 FILLER_0_1_3
*567 FILLER_0_1_305
*568 FILLER_0_1_317
*569 FILLER_0_1_329
*570 FILLER_0_1_335
*571 FILLER_0_1_337
*572 FILLER_0_1_349
*573 FILLER_0_1_39
*574 FILLER_0_1_51
*575 FILLER_0_1_55
*576 FILLER_0_1_57
*577 FILLER_0_1_69
*578 FILLER_0_1_81
*579 FILLER_0_1_93
*580 FILLER_0_20_109
*581 FILLER_0_20_121
*582 FILLER_0_20_133
*583 FILLER_0_20_139
*584 FILLER_0_20_141
*585 FILLER_0_20_15
*586 FILLER_0_20_153
*587 FILLER_0_20_165
*588 FILLER_0_20_177
*589 FILLER_0_20_189
*590 FILLER_0_20_195
*591 FILLER_0_20_197
*592 FILLER_0_20_209
*593 FILLER_0_20_221
*594 FILLER_0_20_233
*595 FILLER_0_20_245
*596 FILLER_0_20_251
*597 FILLER_0_20_253
*598 FILLER_0_20_265
*599 FILLER_0_20_27
*600 FILLER_0_20_277
*601 FILLER_0_20_289
*602 FILLER_0_20_29
*603 FILLER_0_20_3
*604 FILLER_0_20_301
*605 FILLER_0_20_307
*606 FILLER_0_20_309
*607 FILLER_0_20_321
*608 FILLER_0_20_333
*609 FILLER_0_20_345
*610 FILLER_0_20_41
*611 FILLER_0_20_53
*612 FILLER_0_20_65
*613 FILLER_0_20_77
*614 FILLER_0_20_83
*615 FILLER_0_20_85
*616 FILLER_0_20_97
*617 FILLER_0_21_105
*618 FILLER_0_21_111
*619 FILLER_0_21_113
*620 FILLER_0_21_125
*621 FILLER_0_21_137
*622 FILLER_0_21_149
*623 FILLER_0_21_15
*624 FILLER_0_21_161
*625 FILLER_0_21_167
*626 FILLER_0_21_169
*627 FILLER_0_21_181
*628 FILLER_0_21_193
*629 FILLER_0_21_205
*630 FILLER_0_21_217
*631 FILLER_0_21_223
*632 FILLER_0_21_225
*633 FILLER_0_21_237
*634 FILLER_0_21_249
*635 FILLER_0_21_261
*636 FILLER_0_21_27
*637 FILLER_0_21_273
*638 FILLER_0_21_279
*639 FILLER_0_21_281
*640 FILLER_0_21_293
*641 FILLER_0_21_3
*642 FILLER_0_21_305
*643 FILLER_0_21_317
*644 FILLER_0_21_329
*645 FILLER_0_21_335
*646 FILLER_0_21_337
*647 FILLER_0_21_349
*648 FILLER_0_21_39
*649 FILLER_0_21_51
*650 FILLER_0_21_55
*651 FILLER_0_21_57
*652 FILLER_0_21_69
*653 FILLER_0_21_81
*654 FILLER_0_21_93
*655 FILLER_0_22_109
*656 FILLER_0_22_121
*657 FILLER_0_22_133
*658 FILLER_0_22_139
*659 FILLER_0_22_141
*660 FILLER_0_22_15
*661 FILLER_0_22_153
*662 FILLER_0_22_165
*663 FILLER_0_22_177
*664 FILLER_0_22_189
*665 FILLER_0_22_195
*666 FILLER_0_22_197
*667 FILLER_0_22_209
*668 FILLER_0_22_221
*669 FILLER_0_22_233
*670 FILLER_0_22_245
*671 FILLER_0_22_251
*672 FILLER_0_22_253
*673 FILLER_0_22_265
*674 FILLER_0_22_27
*675 FILLER_0_22_277
*676 FILLER_0_22_289
*677 FILLER_0_22_29
*678 FILLER_0_22_3
*679 FILLER_0_22_301
*680 FILLER_0_22_307
*681 FILLER_0_22_309
*682 FILLER_0_22_321
*683 FILLER_0_22_333
*684 FILLER_0_22_345
*685 FILLER_0_22_41
*686 FILLER_0_22_53
*687 FILLER_0_22_65
*688 FILLER_0_22_77
*689 FILLER_0_22_83
*690 FILLER_0_22_85
*691 FILLER_0_22_97
*692 FILLER_0_23_105
*693 FILLER_0_23_111
*694 FILLER_0_23_113
*695 FILLER_0_23_125
*696 FILLER_0_23_137
*697 FILLER_0_23_149
*698 FILLER_0_23_15
*699 FILLER_0_23_161
*700 FILLER_0_23_167
*701 FILLER_0_23_169
*702 FILLER_0_23_181
*703 FILLER_0_23_193
*704 FILLER_0_23_205
*705 FILLER_0_23_217
*706 FILLER_0_23_223
*707 FILLER_0_23_225
*708 FILLER_0_23_237
*709 FILLER_0_23_249
*710 FILLER_0_23_261
*711 FILLER_0_23_27
*712 FILLER_0_23_273
*713 FILLER_0_23_279
*714 FILLER_0_23_281
*715 FILLER_0_23_293
*716 FILLER_0_23_3
*717 FILLER_0_23_305
*718 FILLER_0_23_317
*719 FILLER_0_23_329
*720 FILLER_0_23_335
*721 FILLER_0_23_337
*722 FILLER_0_23_349
*723 FILLER_0_23_39
*724 FILLER_0_23_51
*725 FILLER_0_23_55
*726 FILLER_0_23_57
*727 FILLER_0_23_69
*728 FILLER_0_23_81
*729 FILLER_0_23_93
*730 FILLER_0_24_109
*731 FILLER_0_24_121
*732 FILLER_0_24_133
*733 FILLER_0_24_139
*734 FILLER_0_24_141
*735 FILLER_0_24_15
*736 FILLER_0_24_153
*737 FILLER_0_24_165
*738 FILLER_0_24_177
*739 FILLER_0_24_189
*740 FILLER_0_24_195
*741 FILLER_0_24_197
*742 FILLER_0_24_209
*743 FILLER_0_24_221
*744 FILLER_0_24_233
*745 FILLER_0_24_245
*746 FILLER_0_24_251
*747 FILLER_0_24_253
*748 FILLER_0_24_265
*749 FILLER_0_24_27
*750 FILLER_0_24_277
*751 FILLER_0_24_289
*752 FILLER_0_24_29
*753 FILLER_0_24_3
*754 FILLER_0_24_301
*755 FILLER_0_24_307
*756 FILLER_0_24_309
*757 FILLER_0_24_321
*758 FILLER_0_24_333
*759 FILLER_0_24_345
*760 FILLER_0_24_41
*761 FILLER_0_24_53
*762 FILLER_0_24_65
*763 FILLER_0_24_77
*764 FILLER_0_24_83
*765 FILLER_0_24_85
*766 FILLER_0_24_97
*767 FILLER_0_25_105
*768 FILLER_0_25_111
*769 FILLER_0_25_113
*770 FILLER_0_25_125
*771 FILLER_0_25_137
*772 FILLER_0_25_149
*773 FILLER_0_25_15
*774 FILLER_0_25_161
*775 FILLER_0_25_167
*776 FILLER_0_25_169
*777 FILLER_0_25_181
*778 FILLER_0_25_193
*779 FILLER_0_25_205
*780 FILLER_0_25_217
*781 FILLER_0_25_223
*782 FILLER_0_25_225
*783 FILLER_0_25_237
*784 FILLER_0_25_249
*785 FILLER_0_25_261
*786 FILLER_0_25_27
*787 FILLER_0_25_273
*788 FILLER_0_25_279
*789 FILLER_0_25_281
*790 FILLER_0_25_293
*791 FILLER_0_25_3
*792 FILLER_0_25_305
*793 FILLER_0_25_317
*794 FILLER_0_25_329
*795 FILLER_0_25_335
*796 FILLER_0_25_337
*797 FILLER_0_25_349
*798 FILLER_0_25_39
*799 FILLER_0_25_51
*800 FILLER_0_25_55
*801 FILLER_0_25_57
*802 FILLER_0_25_69
*803 FILLER_0_25_81
*804 FILLER_0_25_93
*805 FILLER_0_26_109
*806 FILLER_0_26_121
*807 FILLER_0_26_133
*808 FILLER_0_26_139
*809 FILLER_0_26_141
*810 FILLER_0_26_15
*811 FILLER_0_26_153
*812 FILLER_0_26_165
*813 FILLER_0_26_177
*814 FILLER_0_26_189
*815 FILLER_0_26_195
*816 FILLER_0_26_197
*817 FILLER_0_26_209
*818 FILLER_0_26_221
*819 FILLER_0_26_233
*820 FILLER_0_26_245
*821 FILLER_0_26_251
*822 FILLER_0_26_253
*823 FILLER_0_26_265
*824 FILLER_0_26_27
*825 FILLER_0_26_277
*826 FILLER_0_26_289
*827 FILLER_0_26_29
*828 FILLER_0_26_3
*829 FILLER_0_26_301
*830 FILLER_0_26_307
*831 FILLER_0_26_309
*832 FILLER_0_26_321
*833 FILLER_0_26_333
*834 FILLER_0_26_345
*835 FILLER_0_26_41
*836 FILLER_0_26_53
*837 FILLER_0_26_65
*838 FILLER_0_26_77
*839 FILLER_0_26_83
*840 FILLER_0_26_85
*841 FILLER_0_26_97
*842 FILLER_0_27_105
*843 FILLER_0_27_111
*844 FILLER_0_27_113
*845 FILLER_0_27_125
*846 FILLER_0_27_137
*847 FILLER_0_27_149
*848 FILLER_0_27_15
*849 FILLER_0_27_161
*850 FILLER_0_27_167
*851 FILLER_0_27_169
*852 FILLER_0_27_181
*853 FILLER_0_27_193
*854 FILLER_0_27_205
*855 FILLER_0_27_217
*856 FILLER_0_27_223
*857 FILLER_0_27_225
*858 FILLER_0_27_237
*859 FILLER_0_27_249
*860 FILLER_0_27_261
*861 FILLER_0_27_27
*862 FILLER_0_27_273
*863 FILLER_0_27_279
*864 FILLER_0_27_281
*865 FILLER_0_27_293
*866 FILLER_0_27_3
*867 FILLER_0_27_305
*868 FILLER_0_27_317
*869 FILLER_0_27_329
*870 FILLER_0_27_335
*871 FILLER_0_27_337
*872 FILLER_0_27_349
*873 FILLER_0_27_39
*874 FILLER_0_27_51
*875 FILLER_0_27_55
*876 FILLER_0_27_57
*877 FILLER_0_27_69
*878 FILLER_0_27_81
*879 FILLER_0_27_93
*880 FILLER_0_28_109
*881 FILLER_0_28_121
*882 FILLER_0_28_133
*883 FILLER_0_28_139
*884 FILLER_0_28_141
*885 FILLER_0_28_15
*886 FILLER_0_28_153
*887 FILLER_0_28_165
*888 FILLER_0_28_177
*889 FILLER_0_28_189
*890 FILLER_0_28_195
*891 FILLER_0_28_197
*892 FILLER_0_28_209
*893 FILLER_0_28_221
*894 FILLER_0_28_233
*895 FILLER_0_28_245
*896 FILLER_0_28_251
*897 FILLER_0_28_253
*898 FILLER_0_28_265
*899 FILLER_0_28_27
*900 FILLER_0_28_277
*901 FILLER_0_28_289
*902 FILLER_0_28_29
*903 FILLER_0_28_3
*904 FILLER_0_28_301
*905 FILLER_0_28_307
*906 FILLER_0_28_309
*907 FILLER_0_28_321
*908 FILLER_0_28_333
*909 FILLER_0_28_345
*910 FILLER_0_28_41
*911 FILLER_0_28_53
*912 FILLER_0_28_65
*913 FILLER_0_28_77
*914 FILLER_0_28_83
*915 FILLER_0_28_85
*916 FILLER_0_28_97
*917 FILLER_0_29_105
*918 FILLER_0_29_111
*919 FILLER_0_29_113
*920 FILLER_0_29_125
*921 FILLER_0_29_137
*922 FILLER_0_29_149
*923 FILLER_0_29_15
*924 FILLER_0_29_161
*925 FILLER_0_29_167
*926 FILLER_0_29_169
*927 FILLER_0_29_181
*928 FILLER_0_29_193
*929 FILLER_0_29_205
*930 FILLER_0_29_217
*931 FILLER_0_29_223
*932 FILLER_0_29_225
*933 FILLER_0_29_237
*934 FILLER_0_29_249
*935 FILLER_0_29_261
*936 FILLER_0_29_27
*937 FILLER_0_29_273
*938 FILLER_0_29_279
*939 FILLER_0_29_281
*940 FILLER_0_29_293
*941 FILLER_0_29_3
*942 FILLER_0_29_305
*943 FILLER_0_29_317
*944 FILLER_0_29_329
*945 FILLER_0_29_335
*946 FILLER_0_29_337
*947 FILLER_0_29_349
*948 FILLER_0_29_39
*949 FILLER_0_29_51
*950 FILLER_0_29_55
*951 FILLER_0_29_57
*952 FILLER_0_29_69
*953 FILLER_0_29_81
*954 FILLER_0_29_93
*955 FILLER_0_2_109
*956 FILLER_0_2_121
*957 FILLER_0_2_133
*958 FILLER_0_2_139
*959 FILLER_0_2_141
*960 FILLER_0_2_15
*961 FILLER_0_2_153
*962 FILLER_0_2_165
*963 FILLER_0_2_177
*964 FILLER_0_2_189
*965 FILLER_0_2_195
*966 FILLER_0_2_197
*967 FILLER_0_2_209
*968 FILLER_0_2_221
*969 FILLER_0_2_233
*970 FILLER_0_2_245
*971 FILLER_0_2_251
*972 FILLER_0_2_253
*973 FILLER_0_2_265
*974 FILLER_0_2_27
*975 FILLER_0_2_277
*976 FILLER_0_2_289
*977 FILLER_0_2_29
*978 FILLER_0_2_3
*979 FILLER_0_2_301
*980 FILLER_0_2_307
*981 FILLER_0_2_309
*982 FILLER_0_2_321
*983 FILLER_0_2_333
*984 FILLER_0_2_345
*985 FILLER_0_2_41
*986 FILLER_0_2_53
*987 FILLER_0_2_65
*988 FILLER_0_2_77
*989 FILLER_0_2_83
*990 FILLER_0_2_85
*991 FILLER_0_2_97
*992 FILLER_0_30_109
*993 FILLER_0_30_121
*994 FILLER_0_30_133
*995 FILLER_0_30_139
*996 FILLER_0_30_141
*997 FILLER_0_30_15
*998 FILLER_0_30_153
*999 FILLER_0_30_165
*1000 FILLER_0_30_177
*1001 FILLER_0_30_189
*1002 FILLER_0_30_195
*1003 FILLER_0_30_197
*1004 FILLER_0_30_209
*1005 FILLER_0_30_221
*1006 FILLER_0_30_233
*1007 FILLER_0_30_245
*1008 FILLER_0_30_251
*1009 FILLER_0_30_253
*1010 FILLER_0_30_265
*1011 FILLER_0_30_27
*1012 FILLER_0_30_277
*1013 FILLER_0_30_289
*1014 FILLER_0_30_29
*1015 FILLER_0_30_3
*1016 FILLER_0_30_301
*1017 FILLER_0_30_307
*1018 FILLER_0_30_309
*1019 FILLER_0_30_321
*1020 FILLER_0_30_333
*1021 FILLER_0_30_345
*1022 FILLER_0_30_41
*1023 FILLER_0_30_53
*1024 FILLER_0_30_65
*1025 FILLER_0_30_77
*1026 FILLER_0_30_83
*1027 FILLER_0_30_85
*1028 FILLER_0_30_97
*1029 FILLER_0_31_105
*1030 FILLER_0_31_111
*1031 FILLER_0_31_113
*1032 FILLER_0_31_125
*1033 FILLER_0_31_137
*1034 FILLER_0_31_149
*1035 FILLER_0_31_15
*1036 FILLER_0_31_161
*1037 FILLER_0_31_167
*1038 FILLER_0_31_169
*1039 FILLER_0_31_181
*1040 FILLER_0_31_193
*1041 FILLER_0_31_205
*1042 FILLER_0_31_217
*1043 FILLER_0_31_223
*1044 FILLER_0_31_225
*1045 FILLER_0_31_237
*1046 FILLER_0_31_249
*1047 FILLER_0_31_261
*1048 FILLER_0_31_27
*1049 FILLER_0_31_273
*1050 FILLER_0_31_279
*1051 FILLER_0_31_281
*1052 FILLER_0_31_293
*1053 FILLER_0_31_3
*1054 FILLER_0_31_305
*1055 FILLER_0_31_317
*1056 FILLER_0_31_329
*1057 FILLER_0_31_335
*1058 FILLER_0_31_337
*1059 FILLER_0_31_349
*1060 FILLER_0_31_39
*1061 FILLER_0_31_51
*1062 FILLER_0_31_55
*1063 FILLER_0_31_57
*1064 FILLER_0_31_69
*1065 FILLER_0_31_81
*1066 FILLER_0_31_93
*1067 FILLER_0_32_109
*1068 FILLER_0_32_121
*1069 FILLER_0_32_133
*1070 FILLER_0_32_139
*1071 FILLER_0_32_141
*1072 FILLER_0_32_15
*1073 FILLER_0_32_153
*1074 FILLER_0_32_165
*1075 FILLER_0_32_177
*1076 FILLER_0_32_189
*1077 FILLER_0_32_195
*1078 FILLER_0_32_197
*1079 FILLER_0_32_205
*1080 FILLER_0_32_214
*1081 FILLER_0_32_233
*1082 FILLER_0_32_245
*1083 FILLER_0_32_258
*1084 FILLER_0_32_27
*1085 FILLER_0_32_277
*1086 FILLER_0_32_289
*1087 FILLER_0_32_29
*1088 FILLER_0_32_3
*1089 FILLER_0_32_301
*1090 FILLER_0_32_307
*1091 FILLER_0_32_309
*1092 FILLER_0_32_321
*1093 FILLER_0_32_333
*1094 FILLER_0_32_345
*1095 FILLER_0_32_41
*1096 FILLER_0_32_53
*1097 FILLER_0_32_65
*1098 FILLER_0_32_77
*1099 FILLER_0_32_83
*1100 FILLER_0_32_85
*1101 FILLER_0_32_97
*1102 FILLER_0_33_105
*1103 FILLER_0_33_111
*1104 FILLER_0_33_113
*1105 FILLER_0_33_125
*1106 FILLER_0_33_137
*1107 FILLER_0_33_149
*1108 FILLER_0_33_15
*1109 FILLER_0_33_161
*1110 FILLER_0_33_167
*1111 FILLER_0_33_169
*1112 FILLER_0_33_181
*1113 FILLER_0_33_193
*1114 FILLER_0_33_205
*1115 FILLER_0_33_213
*1116 FILLER_0_33_225
*1117 FILLER_0_33_229
*1118 FILLER_0_33_248
*1119 FILLER_0_33_252
*1120 FILLER_0_33_266
*1121 FILLER_0_33_27
*1122 FILLER_0_33_277
*1123 FILLER_0_33_288
*1124 FILLER_0_33_3
*1125 FILLER_0_33_300
*1126 FILLER_0_33_312
*1127 FILLER_0_33_324
*1128 FILLER_0_33_337
*1129 FILLER_0_33_349
*1130 FILLER_0_33_39
*1131 FILLER_0_33_51
*1132 FILLER_0_33_55
*1133 FILLER_0_33_57
*1134 FILLER_0_33_69
*1135 FILLER_0_33_81
*1136 FILLER_0_33_93
*1137 FILLER_0_34_109
*1138 FILLER_0_34_121
*1139 FILLER_0_34_133
*1140 FILLER_0_34_139
*1141 FILLER_0_34_141
*1142 FILLER_0_34_15
*1143 FILLER_0_34_153
*1144 FILLER_0_34_165
*1145 FILLER_0_34_177
*1146 FILLER_0_34_189
*1147 FILLER_0_34_195
*1148 FILLER_0_34_197
*1149 FILLER_0_34_201
*1150 FILLER_0_34_210
*1151 FILLER_0_34_220
*1152 FILLER_0_34_229
*1153 FILLER_0_34_236
*1154 FILLER_0_34_248
*1155 FILLER_0_34_260
*1156 FILLER_0_34_268
*1157 FILLER_0_34_27
*1158 FILLER_0_34_272
*1159 FILLER_0_34_279
*1160 FILLER_0_34_287
*1161 FILLER_0_34_29
*1162 FILLER_0_34_3
*1163 FILLER_0_34_300
*1164 FILLER_0_34_309
*1165 FILLER_0_34_321
*1166 FILLER_0_34_333
*1167 FILLER_0_34_345
*1168 FILLER_0_34_41
*1169 FILLER_0_34_53
*1170 FILLER_0_34_65
*1171 FILLER_0_34_77
*1172 FILLER_0_34_83
*1173 FILLER_0_34_85
*1174 FILLER_0_34_97
*1175 FILLER_0_35_105
*1176 FILLER_0_35_111
*1177 FILLER_0_35_113
*1178 FILLER_0_35_125
*1179 FILLER_0_35_137
*1180 FILLER_0_35_149
*1181 FILLER_0_35_15
*1182 FILLER_0_35_159
*1183 FILLER_0_35_167
*1184 FILLER_0_35_169
*1185 FILLER_0_35_188
*1186 FILLER_0_35_203
*1187 FILLER_0_35_222
*1188 FILLER_0_35_232
*1189 FILLER_0_35_266
*1190 FILLER_0_35_27
*1191 FILLER_0_35_270
*1192 FILLER_0_35_279
*1193 FILLER_0_35_288
*1194 FILLER_0_35_296
*1195 FILLER_0_35_3
*1196 FILLER_0_35_308
*1197 FILLER_0_35_320
*1198 FILLER_0_35_332
*1199 FILLER_0_35_337
*1200 FILLER_0_35_349
*1201 FILLER_0_35_39
*1202 FILLER_0_35_51
*1203 FILLER_0_35_55
*1204 FILLER_0_35_57
*1205 FILLER_0_35_69
*1206 FILLER_0_35_81
*1207 FILLER_0_35_93
*1208 FILLER_0_36_109
*1209 FILLER_0_36_121
*1210 FILLER_0_36_133
*1211 FILLER_0_36_139
*1212 FILLER_0_36_141
*1213 FILLER_0_36_149
*1214 FILLER_0_36_15
*1215 FILLER_0_36_165
*1216 FILLER_0_36_176
*1217 FILLER_0_36_180
*1218 FILLER_0_36_185
*1219 FILLER_0_36_189
*1220 FILLER_0_36_197
*1221 FILLER_0_36_215
*1222 FILLER_0_36_223
*1223 FILLER_0_36_232
*1224 FILLER_0_36_238
*1225 FILLER_0_36_243
*1226 FILLER_0_36_251
*1227 FILLER_0_36_262
*1228 FILLER_0_36_268
*1229 FILLER_0_36_27
*1230 FILLER_0_36_281
*1231 FILLER_0_36_289
*1232 FILLER_0_36_29
*1233 FILLER_0_36_3
*1234 FILLER_0_36_305
*1235 FILLER_0_36_309
*1236 FILLER_0_36_321
*1237 FILLER_0_36_333
*1238 FILLER_0_36_345
*1239 FILLER_0_36_41
*1240 FILLER_0_36_53
*1241 FILLER_0_36_65
*1242 FILLER_0_36_77
*1243 FILLER_0_36_83
*1244 FILLER_0_36_85
*1245 FILLER_0_36_97
*1246 FILLER_0_37_105
*1247 FILLER_0_37_111
*1248 FILLER_0_37_113
*1249 FILLER_0_37_125
*1250 FILLER_0_37_137
*1251 FILLER_0_37_146
*1252 FILLER_0_37_15
*1253 FILLER_0_37_158
*1254 FILLER_0_37_164
*1255 FILLER_0_37_169
*1256 FILLER_0_37_184
*1257 FILLER_0_37_193
*1258 FILLER_0_37_199
*1259 FILLER_0_37_209
*1260 FILLER_0_37_259
*1261 FILLER_0_37_27
*1262 FILLER_0_37_278
*1263 FILLER_0_37_3
*1264 FILLER_0_37_307
*1265 FILLER_0_37_319
*1266 FILLER_0_37_331
*1267 FILLER_0_37_335
*1268 FILLER_0_37_337
*1269 FILLER_0_37_349
*1270 FILLER_0_37_39
*1271 FILLER_0_37_51
*1272 FILLER_0_37_55
*1273 FILLER_0_37_57
*1274 FILLER_0_37_69
*1275 FILLER_0_37_81
*1276 FILLER_0_37_93
*1277 FILLER_0_38_104
*1278 FILLER_0_38_110
*1279 FILLER_0_38_113
*1280 FILLER_0_38_119
*1281 FILLER_0_38_131
*1282 FILLER_0_38_141
*1283 FILLER_0_38_15
*1284 FILLER_0_38_159
*1285 FILLER_0_38_167
*1286 FILLER_0_38_173
*1287 FILLER_0_38_197
*1288 FILLER_0_38_201
*1289 FILLER_0_38_208
*1290 FILLER_0_38_220
*1291 FILLER_0_38_225
*1292 FILLER_0_38_236
*1293 FILLER_0_38_242
*1294 FILLER_0_38_248
*1295 FILLER_0_38_27
*1296 FILLER_0_38_285
*1297 FILLER_0_38_29
*1298 FILLER_0_38_291
*1299 FILLER_0_38_3
*1300 FILLER_0_38_307
*1301 FILLER_0_38_309
*1302 FILLER_0_38_321
*1303 FILLER_0_38_333
*1304 FILLER_0_38_337
*1305 FILLER_0_38_349
*1306 FILLER_0_38_41
*1307 FILLER_0_38_53
*1308 FILLER_0_38_57
*1309 FILLER_0_38_68
*1310 FILLER_0_38_74
*1311 FILLER_0_38_80
*1312 FILLER_0_38_88
*1313 FILLER_0_38_92
*1314 FILLER_0_38_98
*1315 FILLER_0_3_105
*1316 FILLER_0_3_111
*1317 FILLER_0_3_113
*1318 FILLER_0_3_125
*1319 FILLER_0_3_137
*1320 FILLER_0_3_149
*1321 FILLER_0_3_15
*1322 FILLER_0_3_161
*1323 FILLER_0_3_167
*1324 FILLER_0_3_169
*1325 FILLER_0_3_181
*1326 FILLER_0_3_193
*1327 FILLER_0_3_205
*1328 FILLER_0_3_217
*1329 FILLER_0_3_223
*1330 FILLER_0_3_225
*1331 FILLER_0_3_237
*1332 FILLER_0_3_249
*1333 FILLER_0_3_261
*1334 FILLER_0_3_27
*1335 FILLER_0_3_273
*1336 FILLER_0_3_279
*1337 FILLER_0_3_281
*1338 FILLER_0_3_293
*1339 FILLER_0_3_3
*1340 FILLER_0_3_305
*1341 FILLER_0_3_317
*1342 FILLER_0_3_329
*1343 FILLER_0_3_335
*1344 FILLER_0_3_337
*1345 FILLER_0_3_349
*1346 FILLER_0_3_39
*1347 FILLER_0_3_51
*1348 FILLER_0_3_55
*1349 FILLER_0_3_57
*1350 FILLER_0_3_69
*1351 FILLER_0_3_81
*1352 FILLER_0_3_93
*1353 FILLER_0_4_109
*1354 FILLER_0_4_121
*1355 FILLER_0_4_133
*1356 FILLER_0_4_139
*1357 FILLER_0_4_141
*1358 FILLER_0_4_15
*1359 FILLER_0_4_153
*1360 FILLER_0_4_165
*1361 FILLER_0_4_177
*1362 FILLER_0_4_189
*1363 FILLER_0_4_195
*1364 FILLER_0_4_197
*1365 FILLER_0_4_209
*1366 FILLER_0_4_221
*1367 FILLER_0_4_233
*1368 FILLER_0_4_245
*1369 FILLER_0_4_251
*1370 FILLER_0_4_253
*1371 FILLER_0_4_265
*1372 FILLER_0_4_27
*1373 FILLER_0_4_277
*1374 FILLER_0_4_289
*1375 FILLER_0_4_29
*1376 FILLER_0_4_3
*1377 FILLER_0_4_301
*1378 FILLER_0_4_307
*1379 FILLER_0_4_309
*1380 FILLER_0_4_321
*1381 FILLER_0_4_333
*1382 FILLER_0_4_345
*1383 FILLER_0_4_41
*1384 FILLER_0_4_53
*1385 FILLER_0_4_65
*1386 FILLER_0_4_77
*1387 FILLER_0_4_83
*1388 FILLER_0_4_85
*1389 FILLER_0_4_97
*1390 FILLER_0_5_105
*1391 FILLER_0_5_111
*1392 FILLER_0_5_113
*1393 FILLER_0_5_125
*1394 FILLER_0_5_137
*1395 FILLER_0_5_149
*1396 FILLER_0_5_15
*1397 FILLER_0_5_161
*1398 FILLER_0_5_167
*1399 FILLER_0_5_169
*1400 FILLER_0_5_181
*1401 FILLER_0_5_193
*1402 FILLER_0_5_205
*1403 FILLER_0_5_217
*1404 FILLER_0_5_223
*1405 FILLER_0_5_225
*1406 FILLER_0_5_237
*1407 FILLER_0_5_249
*1408 FILLER_0_5_261
*1409 FILLER_0_5_27
*1410 FILLER_0_5_273
*1411 FILLER_0_5_279
*1412 FILLER_0_5_281
*1413 FILLER_0_5_293
*1414 FILLER_0_5_3
*1415 FILLER_0_5_305
*1416 FILLER_0_5_317
*1417 FILLER_0_5_329
*1418 FILLER_0_5_335
*1419 FILLER_0_5_337
*1420 FILLER_0_5_349
*1421 FILLER_0_5_39
*1422 FILLER_0_5_51
*1423 FILLER_0_5_55
*1424 FILLER_0_5_57
*1425 FILLER_0_5_69
*1426 FILLER_0_5_81
*1427 FILLER_0_5_93
*1428 FILLER_0_6_109
*1429 FILLER_0_6_121
*1430 FILLER_0_6_133
*1431 FILLER_0_6_139
*1432 FILLER_0_6_141
*1433 FILLER_0_6_15
*1434 FILLER_0_6_153
*1435 FILLER_0_6_165
*1436 FILLER_0_6_177
*1437 FILLER_0_6_189
*1438 FILLER_0_6_195
*1439 FILLER_0_6_197
*1440 FILLER_0_6_209
*1441 FILLER_0_6_221
*1442 FILLER_0_6_233
*1443 FILLER_0_6_245
*1444 FILLER_0_6_251
*1445 FILLER_0_6_253
*1446 FILLER_0_6_265
*1447 FILLER_0_6_27
*1448 FILLER_0_6_277
*1449 FILLER_0_6_289
*1450 FILLER_0_6_29
*1451 FILLER_0_6_3
*1452 FILLER_0_6_301
*1453 FILLER_0_6_307
*1454 FILLER_0_6_309
*1455 FILLER_0_6_321
*1456 FILLER_0_6_333
*1457 FILLER_0_6_345
*1458 FILLER_0_6_41
*1459 FILLER_0_6_53
*1460 FILLER_0_6_65
*1461 FILLER_0_6_77
*1462 FILLER_0_6_83
*1463 FILLER_0_6_85
*1464 FILLER_0_6_97
*1465 FILLER_0_7_105
*1466 FILLER_0_7_111
*1467 FILLER_0_7_113
*1468 FILLER_0_7_125
*1469 FILLER_0_7_137
*1470 FILLER_0_7_149
*1471 FILLER_0_7_15
*1472 FILLER_0_7_161
*1473 FILLER_0_7_167
*1474 FILLER_0_7_169
*1475 FILLER_0_7_181
*1476 FILLER_0_7_193
*1477 FILLER_0_7_205
*1478 FILLER_0_7_217
*1479 FILLER_0_7_223
*1480 FILLER_0_7_225
*1481 FILLER_0_7_237
*1482 FILLER_0_7_249
*1483 FILLER_0_7_261
*1484 FILLER_0_7_27
*1485 FILLER_0_7_273
*1486 FILLER_0_7_279
*1487 FILLER_0_7_281