*SPEF "ieee 1481-1999"
*DESIGN "tt_um_btflv_8bit_fp_adder"
*DATE "11:11:11 Fri 11 11, 1111"
*VENDOR "OpenRCX"
*PROGRAM "Parallel Extraction"
*VERSION "1.0"
*DESIGN_FLOW "NAME_SCOPE LOCAL" "PIN_CAP NONE"
*DIVIDER /
*DELIMITER :
*BUS_DELIMITER []
*T_UNIT 1 NS
*C_UNIT 1 PF
*R_UNIT 1 OHM
*L_UNIT 1 HENRY

*NAME_MAP
*3 clk
*4 ena
*5 rst_n
*6 ui_in[0]
*7 ui_in[1]
*8 ui_in[2]
*9 ui_in[3]
*10 ui_in[4]
*11 ui_in[5]
*12 ui_in[6]
*13 ui_in[7]
*14 uio_in[0]
*15 uio_in[1]
*16 uio_in[2]
*17 uio_in[3]
*18 uio_in[4]
*19 uio_in[5]
*20 uio_in[6]
*21 uio_in[7]
*22 net19
*23 net20
*24 net21
*25 net22
*26 net23
*27 net24
*28 net25
*29 net26
*30 net27
*31 net28
*32 net29
*33 net30
*34 net31
*35 net32
*36 net33
*37 net34
*38 uo_out[0]
*39 uo_out[1]
*40 uo_out[2]
*41 uo_out[3]
*42 uo_out[4]
*43 uo_out[5]
*44 uo_out[6]
*45 uo_out[7]
*46 _000_
*47 _001_
*48 _002_
*49 _003_
*50 _004_
*51 _005_
*52 _006_
*53 _007_
*54 _008_
*55 _009_
*56 _010_
*57 _011_
*58 _012_
*59 _013_
*60 _014_
*61 _015_
*62 _016_
*63 _017_
*64 _018_
*65 _019_
*66 _020_
*67 _021_
*68 _022_
*69 _023_
*70 _024_
*71 _025_
*72 _026_
*73 _027_
*74 _028_
*75 _029_
*76 _030_
*77 _031_
*78 _032_
*79 _033_
*80 _034_
*81 _035_
*82 _036_
*83 _037_
*84 _038_
*85 _039_
*86 _040_
*87 _041_
*88 _042_
*89 _043_
*90 _044_
*91 _045_
*92 _046_
*93 _047_
*94 _048_
*95 _049_
*96 _050_
*97 _051_
*98 _052_
*99 _053_
*100 _054_
*101 _055_
*102 _056_
*103 _057_
*104 _058_
*105 _059_
*106 _060_
*107 _061_
*108 _062_
*109 _063_
*110 _064_
*111 _065_
*112 _066_
*113 _067_
*114 _068_
*115 _069_
*116 _070_
*117 _071_
*118 _072_
*119 _073_
*120 _074_
*121 _075_
*122 _076_
*123 _077_
*124 _078_
*125 _079_
*126 _080_
*127 _081_
*128 _082_
*129 _083_
*130 _084_
*131 _085_
*132 _086_
*133 _087_
*134 _088_
*135 _089_
*136 _090_
*137 _091_
*138 _092_
*139 _093_
*140 _094_
*141 _095_
*142 _096_
*143 _097_
*144 _098_
*145 _099_
*146 _100_
*147 _101_
*148 _102_
*149 _103_
*150 _104_
*151 _105_
*152 _106_
*153 _107_
*154 _108_
*155 _109_
*156 _110_
*157 _111_
*158 _112_
*159 _113_
*160 _114_
*161 _115_
*162 _116_
*163 _117_
*164 _118_
*165 _119_
*166 _120_
*167 _121_
*168 _122_
*169 _123_
*170 _124_
*171 _125_
*172 _126_
*173 _127_
*174 _128_
*175 _129_
*176 _130_
*177 _131_
*178 _132_
*179 _133_
*180 _134_
*181 _135_
*182 _136_
*183 _137_
*184 _138_
*185 _139_
*186 _140_
*187 _141_
*188 _142_
*189 _143_
*190 _144_
*191 _145_
*192 _146_
*193 _147_
*194 _148_
*195 _149_
*196 _150_
*197 _151_
*198 _152_
*199 _153_
*200 _154_
*201 _155_
*202 _156_
*203 _157_
*204 _158_
*205 _159_
*206 _160_
*207 _161_
*208 _162_
*209 _163_
*210 _164_
*211 _165_
*212 _166_
*213 _167_
*214 _168_
*215 _169_
*216 _170_
*217 _171_
*218 _172_
*219 _173_
*220 _174_
*221 _175_
*222 _176_
*223 _177_
*224 _178_
*225 _179_
*226 _180_
*227 _181_
*228 _182_
*229 _183_
*230 _184_
*231 _185_
*232 _186_
*233 _187_
*234 _188_
*235 _189_
*236 _190_
*237 _191_
*238 _192_
*239 _193_
*240 _194_
*241 _195_
*242 _196_
*243 _197_
*244 _198_
*245 _199_
*246 _200_
*247 _201_
*248 _202_
*249 _203_
*250 _204_
*251 _205_
*252 _206_
*253 _207_
*254 _208_
*255 _209_
*256 clknet_0_clk
*257 clknet_1_0__leaf_clk
*258 clknet_1_1__leaf_clk
*259 net1
*260 net10
*261 net11
*262 net12
*263 net13
*264 net14
*265 net15
*266 net16
*267 net17
*268 net18
*269 net2
*270 net3
*271 net4
*272 net5
*273 net6
*274 net7
*275 net8
*276 net9
*277 FILLER_0_0_109
*278 FILLER_0_0_113
*279 FILLER_0_0_125
*280 FILLER_0_0_137
*281 FILLER_0_0_141
*282 FILLER_0_0_15
*283 FILLER_0_0_153
*284 FILLER_0_0_165
*285 FILLER_0_0_169
*286 FILLER_0_0_181
*287 FILLER_0_0_193
*288 FILLER_0_0_197
*289 FILLER_0_0_209
*290 FILLER_0_0_221
*291 FILLER_0_0_225
*292 FILLER_0_0_237
*293 FILLER_0_0_249
*294 FILLER_0_0_253
*295 FILLER_0_0_265
*296 FILLER_0_0_27
*297 FILLER_0_0_277
*298 FILLER_0_0_281
*299 FILLER_0_0_29
*300 FILLER_0_0_293
*301 FILLER_0_0_3
*302 FILLER_0_0_305
*303 FILLER_0_0_309
*304 FILLER_0_0_321
*305 FILLER_0_0_333
*306 FILLER_0_0_337
*307 FILLER_0_0_349
*308 FILLER_0_0_41
*309 FILLER_0_0_53
*310 FILLER_0_0_57
*311 FILLER_0_0_69
*312 FILLER_0_0_81
*313 FILLER_0_0_85
*314 FILLER_0_0_97
*315 FILLER_0_10_109
*316 FILLER_0_10_121
*317 FILLER_0_10_133
*318 FILLER_0_10_139
*319 FILLER_0_10_141
*320 FILLER_0_10_15
*321 FILLER_0_10_153
*322 FILLER_0_10_165
*323 FILLER_0_10_177
*324 FILLER_0_10_189
*325 FILLER_0_10_195
*326 FILLER_0_10_197
*327 FILLER_0_10_209
*328 FILLER_0_10_221
*329 FILLER_0_10_233
*330 FILLER_0_10_245
*331 FILLER_0_10_251
*332 FILLER_0_10_253
*333 FILLER_0_10_265
*334 FILLER_0_10_27
*335 FILLER_0_10_277
*336 FILLER_0_10_289
*337 FILLER_0_10_29
*338 FILLER_0_10_3
*339 FILLER_0_10_301
*340 FILLER_0_10_307
*341 FILLER_0_10_309
*342 FILLER_0_10_321
*343 FILLER_0_10_333
*344 FILLER_0_10_345
*345 FILLER_0_10_41
*346 FILLER_0_10_53
*347 FILLER_0_10_65
*348 FILLER_0_10_77
*349 FILLER_0_10_83
*350 FILLER_0_10_85
*351 FILLER_0_10_97
*352 FILLER_0_11_105
*353 FILLER_0_11_111
*354 FILLER_0_11_113
*355 FILLER_0_11_125
*356 FILLER_0_11_137
*357 FILLER_0_11_149
*358 FILLER_0_11_15
*359 FILLER_0_11_161
*360 FILLER_0_11_167
*361 FILLER_0_11_169
*362 FILLER_0_11_181
*363 FILLER_0_11_193
*364 FILLER_0_11_205
*365 FILLER_0_11_217
*366 FILLER_0_11_223
*367 FILLER_0_11_225
*368 FILLER_0_11_237
*369 FILLER_0_11_249
*370 FILLER_0_11_261
*371 FILLER_0_11_27
*372 FILLER_0_11_273
*373 FILLER_0_11_279
*374 FILLER_0_11_281
*375 FILLER_0_11_293
*376 FILLER_0_11_3
*377 FILLER_0_11_305
*378 FILLER_0_11_317
*379 FILLER_0_11_329
*380 FILLER_0_11_335
*381 FILLER_0_11_337
*382 FILLER_0_11_349
*383 FILLER_0_11_39
*384 FILLER_0_11_51
*385 FILLER_0_11_55
*386 FILLER_0_11_57
*387 FILLER_0_11_69
*388 FILLER_0_11_81
*389 FILLER_0_11_93
*390 FILLER_0_12_109
*391 FILLER_0_12_121
*392 FILLER_0_12_133
*393 FILLER_0_12_139
*394 FILLER_0_12_141
*395 FILLER_0_12_15
*396 FILLER_0_12_153
*397 FILLER_0_12_165
*398 FILLER_0_12_177
*399 FILLER_0_12_189
*400 FILLER_0_12_195
*401 FILLER_0_12_197
*402 FILLER_0_12_209
*403 FILLER_0_12_221
*404 FILLER_0_12_233
*405 FILLER_0_12_245
*406 FILLER_0_12_251
*407 FILLER_0_12_253
*408 FILLER_0_12_265
*409 FILLER_0_12_27
*410 FILLER_0_12_277
*411 FILLER_0_12_289
*412 FILLER_0_12_29
*413 FILLER_0_12_3
*414 FILLER_0_12_301
*415 FILLER_0_12_307
*416 FILLER_0_12_309
*417 FILLER_0_12_321
*418 FILLER_0_12_333
*419 FILLER_0_12_345
*420 FILLER_0_12_41
*421 FILLER_0_12_53
*422 FILLER_0_12_65
*423 FILLER_0_12_77
*424 FILLER_0_12_83
*425 FILLER_0_12_85
*426 FILLER_0_12_97
*427 FILLER_0_13_105
*428 FILLER_0_13_111
*429 FILLER_0_13_113
*430 FILLER_0_13_125
*431 FILLER_0_13_137
*432 FILLER_0_13_149
*433 FILLER_0_13_15
*434 FILLER_0_13_161
*435 FILLER_0_13_167
*436 FILLER_0_13_169
*437 FILLER_0_13_181
*438 FILLER_0_13_193
*439 FILLER_0_13_205
*440 FILLER_0_13_217
*441 FILLER_0_13_223
*442 FILLER_0_13_225
*443 FILLER_0_13_237
*444 FILLER_0_13_249
*445 FILLER_0_13_261
*446 FILLER_0_13_27
*447 FILLER_0_13_273
*448 FILLER_0_13_279
*449 FILLER_0_13_281
*450 FILLER_0_13_293
*451 FILLER_0_13_3
*452 FILLER_0_13_305
*453 FILLER_0_13_317
*454 FILLER_0_13_329
*455 FILLER_0_13_335
*456 FILLER_0_13_337
*457 FILLER_0_13_349
*458 FILLER_0_13_39
*459 FILLER_0_13_51
*460 FILLER_0_13_55
*461 FILLER_0_13_57
*462 FILLER_0_13_69
*463 FILLER_0_13_81
*464 FILLER_0_13_93
*465 FILLER_0_14_109
*466 FILLER_0_14_121
*467 FILLER_0_14_133
*468 FILLER_0_14_139
*469 FILLER_0_14_141
*470 FILLER_0_14_15
*471 FILLER_0_14_153
*472 FILLER_0_14_165
*473 FILLER_0_14_177
*474 FILLER_0_14_189
*475 FILLER_0_14_195
*476 FILLER_0_14_197
*477 FILLER_0_14_209
*478 FILLER_0_14_221
*479 FILLER_0_14_233
*480 FILLER_0_14_245
*481 FILLER_0_14_251
*482 FILLER_0_14_253
*483 FILLER_0_14_265
*484 FILLER_0_14_27
*485 FILLER_0_14_277
*486 FILLER_0_14_289
*487 FILLER_0_14_29
*488 FILLER_0_14_3
*489 FILLER_0_14_301
*490 FILLER_0_14_307
*491 FILLER_0_14_309
*492 FILLER_0_14_321
*493 FILLER_0_14_333
*494 FILLER_0_14_345
*495 FILLER_0_14_41
*496 FILLER_0_14_53
*497 FILLER_0_14_65
*498 FILLER_0_14_77
*499 FILLER_0_14_83
*500 FILLER_0_14_85
*501 FILLER_0_14_97
*502 FILLER_0_15_105
*503 FILLER_0_15_111
*504 FILLER_0_15_113
*505 FILLER_0_15_125
*506 FILLER_0_15_137
*507 FILLER_0_15_149
*508 FILLER_0_15_15
*509 FILLER_0_15_161
*510 FILLER_0_15_167
*511 FILLER_0_15_169
*512 FILLER_0_15_181
*513 FILLER_0_15_193
*514 FILLER_0_15_205
*515 FILLER_0_15_217
*516 FILLER_0_15_223
*517 FILLER_0_15_225
*518 FILLER_0_15_237
*519 FILLER_0_15_249
*520 FILLER_0_15_261
*521 FILLER_0_15_27
*522 FILLER_0_15_273
*523 FILLER_0_15_279
*524 FILLER_0_15_281
*525 FILLER_0_15_293
*526 FILLER_0_15_3
*527 FILLER_0_15_305
*528 FILLER_0_15_317
*529 FILLER_0_15_329
*530 FILLER_0_15_335
*531 FILLER_0_15_337
*532 FILLER_0_15_349
*533 FILLER_0_15_39
*534 FILLER_0_15_51
*535 FILLER_0_15_55
*536 FILLER_0_15_57
*537 FILLER_0_15_69
*538 FILLER_0_15_81
*539 FILLER_0_15_93
*540 FILLER_0_16_109
*541 FILLER_0_16_121
*542 FILLER_0_16_133
*543 FILLER_0_16_139
*544 FILLER_0_16_141
*545 FILLER_0_16_15
*546 FILLER_0_16_153
*547 FILLER_0_16_165
*548 FILLER_0_16_177
*549 FILLER_0_16_189
*550 FILLER_0_16_195
*551 FILLER_0_16_197
*552 FILLER_0_16_209
*553 FILLER_0_16_221
*554 FILLER_0_16_233
*555 FILLER_0_16_245
*556 FILLER_0_16_251
*557 FILLER_0_16_253
*558 FILLER_0_16_265
*559 FILLER_0_16_27
*560 FILLER_0_16_277
*561 FILLER_0_16_289
*562 FILLER_0_16_29
*563 FILLER_0_16_3
*564 FILLER_0_16_301
*565 FILLER_0_16_307
*566 FILLER_0_16_309
*567 FILLER_0_16_321
*568 FILLER_0_16_333
*569 FILLER_0_16_345
*570 FILLER_0_16_41
*571 FILLER_0_16_53
*572 FILLER_0_16_65
*573 FILLER_0_16_77
*574 FILLER_0_16_83
*575 FILLER_0_16_85
*576 FILLER_0_16_97
*577 FILLER_0_17_105
*578 FILLER_0_17_111
*579 FILLER_0_17_113
*580 FILLER_0_17_125
*581 FILLER_0_17_137
*582 FILLER_0_17_149
*583 FILLER_0_17_15
*584 FILLER_0_17_161
*585 FILLER_0_17_167
*586 FILLER_0_17_169
*587 FILLER_0_17_181
*588 FILLER_0_17_193
*589 FILLER_0_17_205
*590 FILLER_0_17_217
*591 FILLER_0_17_223
*592 FILLER_0_17_225
*593 FILLER_0_17_237
*594 FILLER_0_17_249
*595 FILLER_0_17_261
*596 FILLER_0_17_27
*597 FILLER_0_17_273
*598 FILLER_0_17_279
*599 FILLER_0_17_281
*600 FILLER_0_17_293
*601 FILLER_0_17_3
*602 FILLER_0_17_305
*603 FILLER_0_17_317
*604 FILLER_0_17_329
*605 FILLER_0_17_335
*606 FILLER_0_17_337
*607 FILLER_0_17_349
*608 FILLER_0_17_39
*609 FILLER_0_17_51
*610 FILLER_0_17_55
*611 FILLER_0_17_57
*612 FILLER_0_17_69
*613 FILLER_0_17_81
*614 FILLER_0_17_93
*615 FILLER_0_18_109
*616 FILLER_0_18_121
*617 FILLER_0_18_133
*618 FILLER_0_18_139
*619 FILLER_0_18_141
*620 FILLER_0_18_15
*621 FILLER_0_18_153
*622 FILLER_0_18_165
*623 FILLER_0_18_177
*624 FILLER_0_18_189
*625 FILLER_0_18_195
*626 FILLER_0_18_197
*627 FILLER_0_18_209
*628 FILLER_0_18_221
*629 FILLER_0_18_233
*630 FILLER_0_18_245
*631 FILLER_0_18_251
*632 FILLER_0_18_253
*633 FILLER_0_18_265
*634 FILLER_0_18_27
*635 FILLER_0_18_277
*636 FILLER_0_18_289
*637 FILLER_0_18_29
*638 FILLER_0_18_3
*639 FILLER_0_18_301
*640 FILLER_0_18_307
*641 FILLER_0_18_309
*642 FILLER_0_18_321
*643 FILLER_0_18_333
*644 FILLER_0_18_345
*645 FILLER_0_18_41
*646 FILLER_0_18_53
*647 FILLER_0_18_65
*648 FILLER_0_18_77
*649 FILLER_0_18_83
*650 FILLER_0_18_85
*651 FILLER_0_18_97
*652 FILLER_0_19_105
*653 FILLER_0_19_111
*654 FILLER_0_19_113
*655 FILLER_0_19_125
*656 FILLER_0_19_137
*657 FILLER_0_19_149
*658 FILLER_0_19_15
*659 FILLER_0_19_161
*660 FILLER_0_19_167
*661 FILLER_0_19_169
*662 FILLER_0_19_181
*663 FILLER_0_19_193
*664 FILLER_0_19_205
*665 FILLER_0_19_217
*666 FILLER_0_19_223
*667 FILLER_0_19_225
*668 FILLER_0_19_237
*669 FILLER_0_19_249
*670 FILLER_0_19_261
*671 FILLER_0_19_27
*672 FILLER_0_19_273
*673 FILLER_0_19_279
*674 FILLER_0_19_281
*675 FILLER_0_19_293
*676 FILLER_0_19_3
*677 FILLER_0_19_305
*678 FILLER_0_19_317
*679 FILLER_0_19_329
*680 FILLER_0_19_335
*681 FILLER_0_19_337
*682 FILLER_0_19_349
*683 FILLER_0_19_39
*684 FILLER_0_19_51
*685 FILLER_0_19_55
*686 FILLER_0_19_57
*687 FILLER_0_19_69
*688 FILLER_0_19_81
*689 FILLER_0_19_93
*690 FILLER_0_1_105
*691 FILLER_0_1_111
*692 FILLER_0_1_113
*693 FILLER_0_1_125
*694 FILLER_0_1_137
*695 FILLER_0_1_149
*696 FILLER_0_1_15
*697 FILLER_0_1_161
*698 FILLER_0_1_167
*699 FILLER_0_1_169
*700 FILLER_0_1_181
*701 FILLER_0_1_193
*702 FILLER_0_1_205
*703 FILLER_0_1_217
*704 FILLER_0_1_223
*705 FILLER_0_1_225
*706 FILLER_0_1_237
*707 FILLER_0_1_249
*708 FILLER_0_1_261
*709 FILLER_0_1_27
*710 FILLER_0_1_273
*711 FILLER_0_1_279
*712 FILLER_0_1_281
*713 FILLER_0_1_293
*714 FILLER_0_1_3
*715 FILLER_0_1_305
*716 FILLER_0_1_317
*717 FILLER_0_1_329
*718 FILLER_0_1_335
*719 FILLER_0_1_337
*720 FILLER_0_1_349
*721 FILLER_0_1_39
*722 FILLER_0_1_51
*723 FILLER_0_1_55
*724 FILLER_0_1_57
*725 FILLER_0_1_69
*726 FILLER_0_1_81
*727 FILLER_0_1_93
*728 FILLER_0_20_109
*729 FILLER_0_20_121
*730 FILLER_0_20_133
*731 FILLER_0_20_139
*732 FILLER_0_20_141
*733 FILLER_0_20_15
*734 FILLER_0_20_153
*735 FILLER_0_20_165
*736 FILLER_0_20_177
*737 FILLER_0_20_189
*738 FILLER_0_20_195
*739 FILLER_0_20_197
*740 FILLER_0_20_209
*741 FILLER_0_20_221
*742 FILLER_0_20_233
*743 FILLER_0_20_245
*744 FILLER_0_20_251
*745 FILLER_0_20_253
*746 FILLER_0_20_265
*747 FILLER_0_20_27
*748 FILLER_0_20_277
*749 FILLER_0_20_289
*750 FILLER_0_20_29
*751 FILLER_0_20_3
*752 FILLER_0_20_301
*753 FILLER_0_20_307
*754 FILLER_0_20_309
*755 FILLER_0_20_321
*756 FILLER_0_20_333
*757 FILLER_0_20_345
*758 FILLER_0_20_41
*759 FILLER_0_20_53
*760 FILLER_0_20_65
*761 FILLER_0_20_77
*762 FILLER_0_20_83
*763 FILLER_0_20_85
*764 FILLER_0_20_97
*765 FILLER_0_21_105
*766 FILLER_0_21_111
*767 FILLER_0_21_113
*768 FILLER_0_21_125
*769 FILLER_0_21_137
*770 FILLER_0_21_149
*771 FILLER_0_21_15
*772 FILLER_0_21_161
*773 FILLER_0_21_167
*774 FILLER_0_21_169
*775 FILLER_0_21_181
*776 FILLER_0_21_193
*777 FILLER_0_21_205
*778 FILLER_0_21_217
*779 FILLER_0_21_223
*780 FILLER_0_21_225
*781 FILLER_0_21_237
*782 FILLER_0_21_249
*783 FILLER_0_21_261
*784 FILLER_0_21_27
*785 FILLER_0_21_273
*786 FILLER_0_21_279
*787 FILLER_0_21_281
*788 FILLER_0_21_293
*789 FILLER_0_21_3
*790 FILLER_0_21_305
*791 FILLER_0_21_317
*792 FILLER_0_21_329
*793 FILLER_0_21_335
*794 FILLER_0_21_337
*795 FILLER_0_21_349
*796 FILLER_0_21_39
*797 FILLER_0_21_51
*798 FILLER_0_21_55
*799 FILLER_0_21_57
*800 FILLER_0_21_69
*801 FILLER_0_21_81
*802 FILLER_0_21_93
*803 FILLER_0_22_109
*804 FILLER_0_22_121
*805 FILLER_0_22_133
*806 FILLER_0_22_139
*807 FILLER_0_22_141
*808 FILLER_0_22_15
*809 FILLER_0_22_153
*810 FILLER_0_22_165
*811 FILLER_0_22_177
*812 FILLER_0_22_189
*813 FILLER_0_22_195
*814 FILLER_0_22_197
*815 FILLER_0_22_209
*816 FILLER_0_22_221
*817 FILLER_0_22_233
*818 FILLER_0_22_245
*819 FILLER_0_22_251
*820 FILLER_0_22_253
*821 FILLER_0_22_265
*822 FILLER_0_22_27
*823 FILLER_0_22_277
*824 FILLER_0_22_289
*825 FILLER_0_22_29
*826 FILLER_0_22_3
*827 FILLER_0_22_301
*828 FILLER_0_22_307
*829 FILLER_0_22_309
*830 FILLER_0_22_321
*831 FILLER_0_22_333
*832 FILLER_0_22_345
*833 FILLER_0_22_41
*834 FILLER_0_22_53
*835 FILLER_0_22_65
*836 FILLER_0_22_77
*837 FILLER_0_22_83
*838 FILLER_0_22_85
*839 FILLER_0_22_97
*840 FILLER_0_23_105
*841 FILLER_0_23_111
*842 FILLER_0_23_113
*843 FILLER_0_23_125
*844 FILLER_0_23_137
*845 FILLER_0_23_149
*846 FILLER_0_23_15
*847 FILLER_0_23_161
*848 FILLER_0_23_167
*849 FILLER_0_23_169
*850 FILLER_0_23_181
*851 FILLER_0_23_193
*852 FILLER_0_23_205
*853 FILLER_0_23_217
*854 FILLER_0_23_223
*855 FILLER_0_23_225
*856 FILLER_0_23_237
*857 FILLER_0_23_249
*858 FILLER_0_23_261
*859 FILLER_0_23_27
*860 FILLER_0_23_273
*861 FILLER_0_23_279
*862 FILLER_0_23_281
*863 FILLER_0_23_293
*864 FILLER_0_23_3
*865 FILLER_0_23_305
*866 FILLER_0_23_317
*867 FILLER_0_23_329
*868 FILLER_0_23_335
*869 FILLER_0_23_337
*870 FILLER_0_23_349
*871 FILLER_0_23_39
*872 FILLER_0_23_51
*873 FILLER_0_23_55
*874 FILLER_0_23_57
*875 FILLER_0_23_69
*876 FILLER_0_23_81
*877 FILLER_0_23_93
*878 FILLER_0_24_109
*879 FILLER_0_24_121
*880 FILLER_0_24_133
*881 FILLER_0_24_139
*882 FILLER_0_24_141
*883 FILLER_0_24_15
*884 FILLER_0_24_153
*885 FILLER_0_24_165
*886 FILLER_0_24_177
*887 FILLER_0_24_189
*888 FILLER_0_24_195
*889 FILLER_0_24_197
*890 FILLER_0_24_209
*891 FILLER_0_24_221
*892 FILLER_0_24_233
*893 FILLER_0_24_245
*894 FILLER_0_24_251
*895 FILLER_0_24_253
*896 FILLER_0_24_265
*897 FILLER_0_24_27
*898 FILLER_0_24_277
*899 FILLER_0_24_289
*900 FILLER_0_24_29
*901 FILLER_0_24_3
*902 FILLER_0_24_301
*903 FILLER_0_24_307
*904 FILLER_0_24_309
*905 FILLER_0_24_321
*906 FILLER_0_24_333
*907 FILLER_0_24_345
*908 FILLER_0_24_41
*909 FILLER_0_24_53
*910 FILLER_0_24_65
*911 FILLER_0_24_77
*912 FILLER_0_24_83
*913 FILLER_0_24_85
*914 FILLER_0_24_97
*915 FILLER_0_25_105
*916 FILLER_0_25_111
*917 FILLER_0_25_113
*918 FILLER_0_25_125
*919 FILLER_0_25_137
*920 FILLER_0_25_149
*921 FILLER_0_25_15
*922 FILLER_0_25_161
*923 FILLER_0_25_167
*924 FILLER_0_25_169
*925 FILLER_0_25_181
*926 FILLER_0_25_193
*927 FILLER_0_25_199
*928 FILLER_0_25_207
*929 FILLER_0_25_219
*930 FILLER_0_25_223
*931 FILLER_0_25_238
*932 FILLER_0_25_242
*933 FILLER_0_25_247
*934 FILLER_0_25_259
*935 FILLER_0_25_27
*936 FILLER_0_25_271
*937 FILLER_0_25_279
*938 FILLER_0_25_281
*939 FILLER_0_25_293
*940 FILLER_0_25_3
*941 FILLER_0_25_305
*942 FILLER_0_25_317
*943 FILLER_0_25_329
*944 FILLER_0_25_335
*945 FILLER_0_25_337
*946 FILLER_0_25_349
*947 FILLER_0_25_39
*948 FILLER_0_25_51
*949 FILLER_0_25_55
*950 FILLER_0_25_57
*951 FILLER_0_25_69
*952 FILLER_0_25_81
*953 FILLER_0_25_93
*954 FILLER_0_26_109
*955 FILLER_0_26_121
*956 FILLER_0_26_133
*957 FILLER_0_26_139
*958 FILLER_0_26_141
*959 FILLER_0_26_15
*960 FILLER_0_26_153
*961 FILLER_0_26_165
*962 FILLER_0_26_177
*963 FILLER_0_26_189
*964 FILLER_0_26_195
*965 FILLER_0_26_219
*966 FILLER_0_26_237
*967 FILLER_0_26_253
*968 FILLER_0_26_259
*969 FILLER_0_26_27
*970 FILLER_0_26_276
*971 FILLER_0_26_288
*972 FILLER_0_26_29
*973 FILLER_0_26_3
*974 FILLER_0_26_300
*975 FILLER_0_26_309
*976 FILLER_0_26_321
*977 FILLER_0_26_333
*978 FILLER_0_26_345
*979 FILLER_0_26_41
*980 FILLER_0_26_53
*981 FILLER_0_26_65
*982 FILLER_0_26_77
*983 FILLER_0_26_83
*984 FILLER_0_26_85
*985 FILLER_0_26_97
*986 FILLER_0_27_105
*987 FILLER_0_27_111
*988 FILLER_0_27_113
*989 FILLER_0_27_125
*990 FILLER_0_27_137
*991 FILLER_0_27_149
*992 FILLER_0_27_15
*993 FILLER_0_27_161
*994 FILLER_0_27_167
*995 FILLER_0_27_169
*996 FILLER_0_27_177
*997 FILLER_0_27_201
*998 FILLER_0_27_207
*999 FILLER_0_27_219
*1000 FILLER_0_27_223
*1001 FILLER_0_27_233
*1002 FILLER_0_27_241
*1003 FILLER_0_27_249
*1004 FILLER_0_27_261
*1005 FILLER_0_27_266
*1006 FILLER_0_27_27
*1007 FILLER_0_27_275
*1008 FILLER_0_27_279
*1009 FILLER_0_27_281
*1010 FILLER_0_27_288
*1011 FILLER_0_27_295
*1012 FILLER_0_27_3
*1013 FILLER_0_27_307
*1014 FILLER_0_27_317
*1015 FILLER_0_27_329
*1016 FILLER_0_27_335
*1017 FILLER_0_27_337
*1018 FILLER_0_27_349
*1019 FILLER_0_27_39
*1020 FILLER_0_27_51
*1021 FILLER_0_27_55
*1022 FILLER_0_27_57
*1023 FILLER_0_27_69
*1024 FILLER_0_27_81
*1025 FILLER_0_27_93
*1026 FILLER_0_28_109
*1027 FILLER_0_28_121
*1028 FILLER_0_28_133
*1029 FILLER_0_28_139
*1030 FILLER_0_28_141
*1031 FILLER_0_28_15
*1032 FILLER_0_28_153
*1033 FILLER_0_28_165
*1034 FILLER_0_28_173
*1035 FILLER_0_28_181
*1036 FILLER_0_28_193
*1037 FILLER_0_28_197
*1038 FILLER_0_28_201
*1039 FILLER_0_28_230
*1040 FILLER_0_28_250
*1041 FILLER_0_28_253
*1042 FILLER_0_28_265
*1043 FILLER_0_28_27
*1044 FILLER_0_28_276
*1045 FILLER_0_28_29
*1046 FILLER_0_28_3
*1047 FILLER_0_28_318
*1048 FILLER_0_28_328
*1049 FILLER_0_28_340
*1050 FILLER_0_28_348
*1051 FILLER_0_28_41
*1052 FILLER_0_28_53
*1053 FILLER_0_28_65
*1054 FILLER_0_28_77
*1055 FILLER_0_28_83
*1056 FILLER_0_28_85
*1057 FILLER_0_28_97
*1058 FILLER_0_29_105
*1059 FILLER_0_29_111
*1060 FILLER_0_29_113
*1061 FILLER_0_29_119
*1062 FILLER_0_29_131
*1063 FILLER_0_29_147
*1064 FILLER_0_29_15
*1065 FILLER_0_29_156
*1066 FILLER_0_29_169
*1067 FILLER_0_29_186
*1068 FILLER_0_29_190
*1069 FILLER_0_29_215
*1070 FILLER_0_29_223
*1071 FILLER_0_29_225
*1072 FILLER_0_29_237
*1073 FILLER_0_29_245
*1074 FILLER_0_29_257
*1075 FILLER_0_29_27
*1076 FILLER_0_29_278
*1077 FILLER_0_29_281
*1078 FILLER_0_29_293
*1079 FILLER_0_29_3
*1080 FILLER_0_29_308
*1081 FILLER_0_29_329
*1082 FILLER_0_29_347
*1083 FILLER_0_29_39
*1084 FILLER_0_29_51
*1085 FILLER_0_29_55
*1086 FILLER_0_29_57
*1087 FILLER_0_29_69
*1088 FILLER_0_29_81
*1089 FILLER_0_29_93
*1090 FILLER_0_2_109
*1091 FILLER_0_2_121
*1092 FILLER_0_2_133
*1093 FILLER_0_2_139
*1094 FILLER_0_2_141
*1095 FILLER_0_2_15
*1096 FILLER_0_2_153
*1097 FILLER_0_2_165
*1098 FILLER_0_2_177
*1099 FILLER_0_2_189
*1100 FILLER_0_2_195
*1101 FILLER_0_2_197
*1102 FILLER_0_2_209
*1103 FILLER_0_2_221
*1104 FILLER_0_2_233
*1105 FILLER_0_2_245
*1106 FILLER_0_2_251
*1107 FILLER_0_2_253
*1108 FILLER_0_2_265
*1109 FILLER_0_2_27
*1110 FILLER_0_2_277
*1111 FILLER_0_2_289
*1112 FILLER_0_2_29
*1113 FILLER_0_2_3
*1114 FILLER_0_2_301
*1115 FILLER_0_2_307
*1116 FILLER_0_2_309
*1117 FILLER_0_2_321
*1118 FILLER_0_2_333
*1119 FILLER_0_2_345
*1120 FILLER_0_2_41
*1121 FILLER_0_2_53
*1122 FILLER_0_2_65
*1123 FILLER_0_2_77
*1124 FILLER_0_2_83
*1125 FILLER_0_2_85
*1126 FILLER_0_2_97
*1127 FILLER_0_30_101
*1128 FILLER_0_30_110
*1129 FILLER_0_30_138
*1130 FILLER_0_30_15
*1131 FILLER_0_30_153
*1132 FILLER_0_30_165
*1133 FILLER_0_30_173
*1134 FILLER_0_30_183
*1135 FILLER_0_30_195
*1136 FILLER_0_30_197
*1137 FILLER_0_30_246
*1138 FILLER_0_30_269
*1139 FILLER_0_30_27
*1140 FILLER_0_30_280
*1141 FILLER_0_30_288
*1142 FILLER_0_30_29
*1143 FILLER_0_30_298
*1144 FILLER_0_30_3
*1145 FILLER_0_30_306
*1146 FILLER_0_30_309
*1147 FILLER_0_30_327
*1148 FILLER_0_30_41
*1149 FILLER_0_30_53
*1150 FILLER_0_30_65
*1151 FILLER_0_30_77
*1152 FILLER_0_30_83
*1153 FILLER_0_30_85
*1154 FILLER_0_30_97
*1155 FILLER_0_31_105
*1156 FILLER_0_31_111
*1157 FILLER_0_31_113
*1158 FILLER_0_31_121
*1159 FILLER_0_31_130
*1160 FILLER_0_31_142
*1161 FILLER_0_31_15
*1162 FILLER_0_31_166
*1163 FILLER_0_31_174
*1164 FILLER_0_31_182
*1165 FILLER_0_31_200
*1166 FILLER_0_31_221
*1167 FILLER_0_31_240
*1168 FILLER_0_31_249
*1169 FILLER_0_31_261
*1170 FILLER_0_31_27
*1171 FILLER_0_31_272
*1172 FILLER_0_31_281
*1173 FILLER_0_31_3
*1174 FILLER_0_31_309
*1175 FILLER_0_31_317
*1176 FILLER_0_31_329
*1177 FILLER_0_31_335
*1178 FILLER_0_31_349
*1179 FILLER_0_31_39
*1180 FILLER_0_31_51
*1181 FILLER_0_31_55
*1182 FILLER_0_31_57
*1183 FILLER_0_31_69
*1184 FILLER_0_31_81
*1185 FILLER_0_31_93
*1186 FILLER_0_31_99
*1187 FILLER_0_32_106
*1188 FILLER_0_32_118
*1189 FILLER_0_32_133
*1190 FILLER_0_32_139
*1191 FILLER_0_32_141
*1192 FILLER_0_32_147
*1193 FILLER_0_32_15
*1194 FILLER_0_32_159
*1195 FILLER_0_32_169
*1196 FILLER_0_32_175
*1197 FILLER_0_32_184
*1198 FILLER_0_32_193
*1199 FILLER_0_32_197
*1200 FILLER_0_32_209
*1201 FILLER_0_32_244
*1202 FILLER_0_32_266
*1203 FILLER_0_32_27
*1204 FILLER_0_32_285
*1205 FILLER_0_32_29
*1206 FILLER_0_32_3
*1207 FILLER_0_32_306
*1208 FILLER_0_32_309
*1209 FILLER_0_32_326
*1210 FILLER_0_32_350
*1211 FILLER_0_32_41
*1212 FILLER_0_32_53
*1213 FILLER_0_32_65
*1214 FILLER_0_32_77
*1215 FILLER_0_32_83
*1216 FILLER_0_32_85
*1217 FILLER_0_32_97
*1218 FILLER_0_33_108
*1219 FILLER_0_33_113
*1220 FILLER_0_33_130
*1221 FILLER_0_33_15
*1222 FILLER_0_33_158
*1223 FILLER_0_33_167
*1224 FILLER_0_33_169
*1225 FILLER_0_33_183
*1226 FILLER_0_33_196
*1227 FILLER_0_33_210
*1228 FILLER_0_33_222
*1229 FILLER_0_33_247
*1230 FILLER_0_33_263
*1231 FILLER_0_33_27
*1232 FILLER_0_33_274
*1233 FILLER_0_33_290
*1234 FILLER_0_33_298
*1235 FILLER_0_33_3
*1236 FILLER_0_33_330
*1237 FILLER_0_33_349
*1238 FILLER_0_33_39
*1239 FILLER_0_33_51
*1240 FILLER_0_33_55
*1241 FILLER_0_33_57
*1242 FILLER_0_33_69
*1243 FILLER_0_33_81
*1244 FILLER_0_33_93
*1245 FILLER_0_34_104
*1246 FILLER_0_34_115
*1247 FILLER_0_34_127
*1248 FILLER_0_34_135
*1249 FILLER_0_34_141
*1250 FILLER_0_34_15
*1251 FILLER_0_34_162
*1252 FILLER_0_34_166
*1253 FILLER_0_34_194
*1254 FILLER_0_34_197
*1255 FILLER_0_34_209
*1256 FILLER_0_34_221
*1257 FILLER_0_34_227
*1258 FILLER_0_34_239
*1259 FILLER_0_34_253
*1260 FILLER_0_34_263
*1261 FILLER_0_34_27
*1262 FILLER_0_34_278
*1263 FILLER_0_34_29
*1264 FILLER_0_34_294
*1265 FILLER_0_34_3
*1266 FILLER_0_34_307
*1267 FILLER_0_34_350
*1268 FILLER_0_34_41
*1269 FILLER_0_34_53
*1270 FILLER_0_34_65
*1271 FILLER_0_34_77
*1272 FILLER_0_34_83
*1273 FILLER_0_34_85
*1274 FILLER_0_34_97
*1275 FILLER_0_35_111
*1276 FILLER_0_35_113
*1277 FILLER_0_35_15
*1278 FILLER_0_35_167
*1279 FILLER_0_35_169
*1280 FILLER_0_35_174
*1281 FILLER_0_35_180
*1282 FILLER_0_35_196
*1283 FILLER_0_35_200
*1284 FILLER_0_35_221
*1285 FILLER_0_35_230
*1286 FILLER_0_35_265
*1287 FILLER_0_35_27
*1288 FILLER_0_35_279
*1289 FILLER_0_35_3
*1290 FILLER_0_35_325
*1291 FILLER_0_35_348
*1292 FILLER_0_35_39
*1293 FILLER_0_35_51
*1294 FILLER_0_35_55
*1295 FILLER_0_35_57
*1296 FILLER_0_35_69
*1297 FILLER_0_35_81
*1298 FILLER_0_35_93
*1299 FILLER_0_35_97
*1300 FILLER_0_36_105
*1301 FILLER_0_36_112
*1302 FILLER_0_36_124
*1303 FILLER_0_36_139
*1304 FILLER_0_36_141
*1305 FILLER_0_36_15
*1306 FILLER_0_36_153
*1307 FILLER_0_36_174
*1308 FILLER_0_36_178
*1309 FILLER_0_36_197
*1310 FILLER_0_36_215
*1311 FILLER_0_36_230
*1312 FILLER_0_36_238
*1313 FILLER_0_36_243
*1314 FILLER_0_36_251
*1315 FILLER_0_36_262
*1316 FILLER_0_36_27
*1317 FILLER_0_36_281
*1318 FILLER_0_36_287
*1319 FILLER_0_36_29
*1320 FILLER_0_36_294
*1321 FILLER_0_36_3
*1322 FILLER_0_36_307
*1323 FILLER_0_36_323
*1324 FILLER_0_36_41
*1325 FILLER_0_36_53
*1326 FILLER_0_36_65
*1327 FILLER_0_36_77
*1328 FILLER_0_36_83
*1329 FILLER_0_36_85
*1330 FILLER_0_36_97
*1331 FILLER_0_37_105
*1332 FILLER_0_37_111
*1333 FILLER_0_37_113
*1334 FILLER_0_37_134
*1335 FILLER_0_37_146
*1336 FILLER_0_37_15
*1337 FILLER_0_37_152
*1338 FILLER_0_37_164
*1339 FILLER_0_37_169
*1340 FILLER_0_37_175
*1341 FILLER_0_37_213
*1342 FILLER_0_37_27
*1343 FILLER_0_37_274
*1344 FILLER_0_37_3
*1345 FILLER_0_37_302
*1346 FILLER_0_37_343
*1347 FILLER_0_37_39
*1348 FILLER_0_37_51
*1349 FILLER_0_37_55
*1350 FILLER_0_37_57
*1351 FILLER_0_37_69
*1352 FILLER_0_37_81
*1353 FILLER_0_37_93
*1354 FILLER_0_38_104
*1355 FILLER_0_38_110
*1356 FILLER_0_38_116
*1357 FILLER_0_38_122
*1358 FILLER_0_38_128
*1359 FILLER_0_38_134
*1360 FILLER_0_38_141
*1361 FILLER_0_38_15
*1362 FILLER_0_38_165
*1363 FILLER_0_38_186
*1364 FILLER_0_38_194
*1365 FILLER_0_38_197
*1366 FILLER_0_38_201
*1367 FILLER_0_38_222
*1368 FILLER_0_38_225
*1369 FILLER_0_38_244
*1370 FILLER_0_38_27
*1371 FILLER_0_38_273
*1372 FILLER_0_38_279
*1373 FILLER_0_38_29
*1374 FILLER_0_38_298
*1375 FILLER_0_38_3
*1376 FILLER_0_38_305
*1377 FILLER_0_38_317
*1378 FILLER_0_38_323
*1379 FILLER_0_38_331
*1380 FILLER_0_38_350
*1381 FILLER_0_38_41
*1382 FILLER_0_38_53
*1383 FILLER_0_38_57
*1384 FILLER_0_38_68
*1385 FILLER_0_38_74
*1386 FILLER_0_38_80
*1387 FILLER_0_38_88
*1388 FILLER_0_38_92
*1389 FILLER_0_38_98
*1390 FILLER_0_3_105
*1391 FILLER_0_3_111
*1392 FILLER_0_3_113
*1393 FILLER_0_3_125
*1394 FILLER_0_3_137
*1395 FILLER_0_3_149
*1396 FILLER_0_3_15
*1397 FILLER_0_3_161
*1398 FILLER_0_3_167
*1399 FILLER_0_3_169
*1400 FILLER_0_3_181
*1401 FILLER_0_3_193
*1402 FILLER_0_3_205
*1403 FILLER_0_3_217
*1404 FILLER_0_3_223
*1405 FILLER_0_3_225
*1406 FILLER_0_3_237
*1407 FILLER_0_3_249
*1408 FILLER_0_3_261
*1409 FILLER_0_3_27
*1410 FILLER_0_3_273
*1411 FILLER_0_3_279
*1412 FILLER_0_3_281
*1413 FILLER_0_3_293
*1414 FILLER_0_3_3
*1415 FILLER_0_3_305
*1416 FILLER_0_3_317
*1417 FILLER_0_3_329
*1418 FILLER_0_3_335
*1419 FILLER_0_3_337
*1420 FILLER_0_3_349
*1421 FILLER_0_3_39
*1422 FILLER_0_3_51
*1423 FILLER_0_3_55
*1424 FILLER_0_3_57
*1425 FILLER_0_3_69
*1426 FILLER_0_3_81
*1427 FILLER_0_3_93
*1428 FILLER_0_4_109
*1429 FILLER_0_4_121
*1430 FILLER_0_4_133
*1431 FILLER_0_4_139
*1432 FILLER_0_4_141
*1433 FILLER_0_4_15
*1434 FILLER_0_4_153
*1435 FILLER_0_4_165
*1436 FILLER_0_4_177
*1437 FILLER_0_4_189
*1438 FILLER_0_4_195
*1439 FILLER_0_4_197
*1440 FILLER_0_4_209
*1441 FILLER_0_4_221
*1442 FILLER_0_4_233
*1443 FILLER_0_4_245
*1444 FILLER_0_4_251
*1445 FILLER_0_4_253
*1446 FILLER_0_4_265
*1447 FILLER_0_4_27
*1448 FILLER_0_4_277
*1449 FILLER_0_4_289
*1450 FILLER_0_4_29
*1451 FILLER_0_4_3
*1452 FILLER_0_4_301
*1453 FILLER_0_4_307
*1454 FILLER_0_4_309
*1455 FILLER_0_4_321
*1456 FILLER_0_4_333
*1457 FILLER_0_4_345
*1458 FILLER_0_4_41
*1459 FILLER_0_4_53
*1460 FILLER_0_4_65
*1461 FILLER_0_4_77
*1462 FILLER_0_4_83
*1463 FILLER_0_4_85
*1464 FILLER_0_4_97
*1465 FILLER_0_5_105
*1466 FILLER_0_5_111
*1467 FILLER_0_5_113
*1468 FILLER_0_5_125
*1469 FILLER_0_5_137
*1470 FILLER_0_5_149
*1471 FILLER_0_5_15
*1472 FILLER_0_5_161
*1473 FILLER_0_5_167
*1474 FILLER_0_5_169
*1475 FILLER_0_5_181
*1476 FILLER_0_5_193
*1477 FILLER_0_5_205
*1478 FILLER_0_5_217
*1479 FILLER_0_5_223
*1480 FILLER_0_5_225
*1481 FILLER_0_5_237
*1482 FILLER_0_5_249
*1483 FILLER_0_5_261
*1484 FILLER_0_5_27
*1485 FILLER_0_5_273
*1486 FILLER_0_5_279
*1487 FILLER_0_5_281
*1488 FILLER_0_5_293
*1489 FILLER_0_5_3
*1490 FILLER_0_5_305
*1491 FILLER_0_5_317
*1492 FILLER_0_5_329
*1493 FILLER_0_5_335
*1494 FILLER_0_5_337
*1495 FILLER_0_5_349
*1496 FILLER_0_5_39
*1497 FILLER_0_5_51
*1498 FILLER_0_5_55
*1499 FILLER_0_5_57
*1500 FILLER_0_5_69
*1501 FILLER_0_5_81
*1502 FILLER_0_5_93
*1503 FILLER_0_6_109
*1504 FILLER_0_6_121
*1505 FILLER_0_6_133
*1506 FILLER_0_6_139
*1507 FILLER_0_6_141
*1508 FILLER_0_6_15
*1509 FILLER_0_6_153
*1510 FILLER_0_6_165
*1511 FILLER_0_6_177
*1512 FILLER_0_6_189
*1513 FILLER_0_6_195
*1514 FILLER_0_6_197
*1515 FILLER_0_6_209
*1516 FILLER_0_6_221
*1517 FILLER_0_6_233
*1518 FILLER_0_6_245
*1519 FILLER_0_6_251
*1520 FILLER_0_6_253
*1521 FILLER_0_6_265
*1522 FILLER_0_6_27
*1523 FILLER_0_6_277
*1524 FILLER_0_6_289
*1525 FILLER_0_6_29
*1526 FILLER_0_6_3
*1527 FILLER_0_6_301
*1528 FILLER_0_6_307
*1529 FILLER_0_6_309
*1530 FILLER_0_6_321
*1531 FILLER_0_6_333
*1532 FILLER_0_6_345
*1533 FILLER_0_6_41
*1534 FILLER_0_6_53
*1535 FILLER_0_6_65
*1536 FILLER_0_6_77
*1537 FILLER_0_6_83
*1538 FILLER_0_6_85
*1539 FILLER_0_6_97
*1540 FILLER_0_7_105
*1541 FILLER_0_7_111
*1542 FILLER_0_7_113
*1543 FILLER_0_7_125
*1544 FILLER_0_7_137
*1545 FILLER_0_7_149
*1546 FILLER_0_7_15
*1547 FILLER_0_7_161
*1548 FILLER_0_7_167
*1549 FILLER_0_7_169
*1550 FILLER_0_7_181
*1551 FILLER_0_7_193
*1552 FILLER_0_7_205