*SPEF "ieee 1481-1999"
*DESIGN "tt_um_tomkeddie_a"
*DATE "11:11:11 Fri 11 11, 1111"
*VENDOR "OpenRCX"
*PROGRAM "Parallel Extraction"
*VERSION "1.0"
*DESIGN_FLOW "NAME_SCOPE LOCAL" "PIN_CAP NONE"
*DIVIDER /
*DELIMITER :
*BUS_DELIMITER []
*T_UNIT 1 NS
*C_UNIT 1 PF
*R_UNIT 1 OHM
*L_UNIT 1 HENRY

*NAME_MAP
*3 clk
*4 ena
*5 rst_n
*6 ui_in[0]
*7 ui_in[1]
*8 ui_in[2]
*9 ui_in[3]
*10 ui_in[4]
*11 ui_in[5]
*12 ui_in[6]
*13 ui_in[7]
*14 uio_in[0]
*15 uio_in[1]
*16 uio_in[2]
*17 uio_in[3]
*18 uio_in[4]
*19 uio_in[5]
*20 uio_in[6]
*21 uio_in[7]
*22 uio_oe[0]
*23 uio_oe[1]
*24 uio_oe[2]
*25 uio_oe[3]
*26 uio_oe[4]
*27 uio_oe[5]
*28 uio_oe[6]
*29 uio_oe[7]
*30 uio_out[0]
*31 uio_out[1]
*32 uio_out[2]
*33 uio_out[3]
*34 uio_out[4]
*35 uio_out[5]
*36 net10
*37 net11
*38 uo_out[0]
*39 uo_out[1]
*40 uo_out[2]
*41 uo_out[3]
*42 uo_out[4]
*43 uo_out[5]
*44 uo_out[6]
*45 uo_out[7]
*46 _000_
*47 _001_
*48 _002_
*49 _003_
*50 _004_
*51 _005_
*52 _006_
*53 _007_
*54 _008_
*55 _009_
*56 _010_
*57 _011_
*58 _012_
*59 _013_
*60 _014_
*61 _015_
*62 _016_
*63 _017_
*64 _018_
*65 _019_
*66 _020_
*67 _021_
*68 _022_
*69 _023_
*70 _024_
*71 _025_
*72 _026_
*73 _027_
*74 _028_
*75 _029_
*76 _030_
*77 _031_
*78 _032_
*79 _033_
*80 _034_
*81 _035_
*82 _036_
*83 _037_
*84 _038_
*85 _039_
*86 _040_
*87 _041_
*88 _042_
*89 _043_
*90 _044_
*91 _045_
*92 _046_
*93 _047_
*94 _048_
*95 _049_
*96 _050_
*97 _051_
*98 _052_
*99 _053_
*100 _054_
*101 _055_
*102 _056_
*103 _057_
*104 _058_
*105 _059_
*106 _060_
*107 _061_
*108 _062_
*109 _063_
*110 _064_
*111 _065_
*112 _066_
*113 _067_
*114 _068_
*115 _069_
*116 _070_
*117 _071_
*118 _072_
*119 _073_
*120 _074_
*121 _075_
*122 _076_
*123 _077_
*124 _078_
*125 _079_
*126 _080_
*127 _081_
*128 _082_
*129 _083_
*130 _084_
*131 _085_
*132 _086_
*133 _087_
*134 _088_
*135 _089_
*136 _090_
*137 _091_
*138 _092_
*139 _093_
*140 _094_
*141 _095_
*142 _096_
*143 _097_
*144 _098_
*145 _099_
*146 _100_
*147 _101_
*148 _102_
*149 _103_
*150 _104_
*151 _105_
*152 _106_
*153 _107_
*154 _108_
*155 _109_
*156 _110_
*157 _111_
*158 _112_
*159 _113_
*160 _114_
*161 _115_
*162 _116_
*163 _117_
*164 _118_
*165 _119_
*166 _120_
*167 _121_
*168 _122_
*169 _123_
*170 _124_
*171 _125_
*172 _126_
*173 _127_
*174 _128_
*175 _129_
*176 _130_
*177 _131_
*178 _132_
*179 _133_
*180 _134_
*181 _135_
*182 _136_
*183 _137_
*184 _138_
*185 _139_
*186 _140_
*187 _141_
*188 _142_
*189 _143_
*190 _144_
*191 _145_
*192 _146_
*193 _147_
*194 _148_
*195 _149_
*196 _150_
*197 _151_
*198 _152_
*199 _153_
*200 _154_
*201 _155_
*202 _156_
*203 _157_
*204 _158_
*205 _159_
*206 _160_
*207 _161_
*208 _162_
*209 _163_
*210 _164_
*211 _165_
*212 _166_
*213 _167_
*214 _168_
*215 _169_
*216 _170_
*217 _171_
*218 _172_
*219 _173_
*220 _174_
*221 _175_
*222 _176_
*223 _177_
*224 _178_
*225 _179_
*226 _180_
*227 _181_
*228 _182_
*229 _183_
*230 _184_
*231 _185_
*232 _186_
*233 _187_
*234 _188_
*235 _189_
*236 _190_
*237 _191_
*238 _192_
*239 _193_
*240 _194_
*241 _195_
*242 _196_
*243 _197_
*244 _198_
*245 _199_
*246 _200_
*247 _201_
*248 _202_
*249 _203_
*250 _204_
*251 _205_
*252 _206_
*253 _207_
*254 _208_
*255 _209_
*256 _210_
*257 _211_
*258 _212_
*259 _213_
*260 _214_
*261 _215_
*262 _216_
*263 _217_
*264 _218_
*265 _219_
*266 _220_
*267 _221_
*268 _222_
*269 _223_
*270 _224_
*271 _225_
*272 _226_
*273 _227_
*274 _228_
*275 _229_
*276 _230_
*277 _231_
*278 _232_
*279 _233_
*280 _234_
*281 _235_
*282 _236_
*283 _237_
*284 _238_
*285 _239_
*286 _240_
*287 _241_
*288 _242_
*289 _243_
*290 _244_
*291 _245_
*292 _246_
*293 _247_
*294 _248_
*295 _249_
*296 _250_
*297 _251_
*298 _252_
*299 _253_
*300 _254_
*301 _255_
*302 _256_
*303 _257_
*304 _258_
*305 _259_
*306 _260_
*307 _261_
*308 _262_
*309 _263_
*310 _264_
*311 _265_
*312 _266_
*313 _267_
*314 _268_
*315 _269_
*316 _270_
*317 _271_
*318 _272_
*319 _273_
*320 _274_
*321 _275_
*322 _276_
*323 _277_
*324 _278_
*325 _279_
*326 _280_
*327 _281_
*328 _282_
*329 _283_
*330 _284_
*331 _285_
*332 _286_
*333 _287_
*334 _288_
*335 _289_
*336 _290_
*337 _291_
*338 _292_
*339 _293_
*340 _294_
*341 _295_
*342 _296_
*343 _297_
*344 _298_
*345 _299_
*346 _300_
*347 _301_
*348 _302_
*349 _303_
*350 _304_
*351 _305_
*352 _306_
*353 _307_
*354 _308_
*355 _309_
*356 _310_
*357 _311_
*358 _312_
*359 _313_
*360 _314_
*361 _315_
*362 _316_
*363 _317_
*364 _318_
*365 _319_
*366 _320_
*367 _321_
*368 _322_
*369 _323_
*370 _324_
*371 _325_
*372 _326_
*373 _327_
*374 _328_
*375 _329_
*376 _330_
*377 _331_
*378 _332_
*379 _333_
*380 _334_
*381 _335_
*382 _336_
*383 _337_
*384 _338_
*385 _339_
*386 _340_
*387 _341_
*388 _342_
*389 _343_
*390 _344_
*391 _345_
*392 _346_
*393 _347_
*394 _348_
*395 _349_
*396 _350_
*397 _351_
*398 _352_
*399 _353_
*400 _354_
*401 _355_
*402 _356_
*403 _357_
*404 _358_
*405 _359_
*406 _360_
*407 _361_
*408 _362_
*409 _363_
*410 _364_
*411 _365_
*412 _366_
*413 _367_
*414 _368_
*415 _369_
*416 _370_
*417 _371_
*418 _372_
*419 _373_
*420 _374_
*421 _375_
*422 _376_
*423 _377_
*424 _378_
*425 _379_
*426 _380_
*427 _381_
*428 _382_
*429 _383_
*430 _384_
*431 _385_
*432 _386_
*433 _387_
*434 clknet_0_clk
*435 clknet_2_0__leaf_clk
*436 clknet_2_1__leaf_clk
*437 clknet_2_2__leaf_clk
*438 clknet_2_3__leaf_clk
*439 net1
*440 net12
*441 net13
*442 net14
*443 net15
*444 net16
*445 net17
*446 net18
*447 net19
*448 net2
*449 net20
*450 net21
*451 net22
*452 net23
*453 net24
*454 net25
*455 net26
*456 net27
*457 net28
*458 net29
*459 net3
*460 net30
*461 net31
*462 net4
*463 net5
*464 net6
*465 net7
*466 net8
*467 net9
*468 vga\.b0
*469 vga\.blank_h
*470 vga\.blank_v
*471 vga\.count_h\[0\]
*472 vga\.count_h\[1\]
*473 vga\.count_h\[2\]
*474 vga\.count_h\[3\]
*475 vga\.count_h\[4\]
*476 vga\.count_h\[5\]
*477 vga\.count_h\[6\]
*478 vga\.count_h\[7\]
*479 vga\.count_h\[8\]
*480 vga\.count_h\[9\]
*481 vga\.count_v\[0\]
*482 vga\.count_v\[1\]
*483 vga\.count_v\[2\]
*484 vga\.count_v\[3\]
*485 vga\.count_v\[4\]
*486 vga\.count_v\[5\]
*487 vga\.count_v\[6\]
*488 vga\.count_v\[7\]
*489 vga\.count_v\[8\]
*490 vga\.g0
*491 vga\.hs
*492 vga\.hs_out
*493 vga\.left_down_1d
*494 vga\.left_up_1d
*495 vga\.pos_l\[0\]
*496 vga\.pos_l\[1\]
*497 vga\.pos_l\[2\]
*498 vga\.pos_l\[3\]
*499 vga\.pos_l\[4\]
*500 vga\.pos_l\[5\]
*501 vga\.pos_l\[6\]
*502 vga\.pos_l\[7\]
*503 vga\.pos_l\[8\]
*504 vga\.pos_r\[0\]
*505 vga\.pos_r\[1\]
*506 vga\.pos_r\[2\]
*507 vga\.pos_r\[3\]
*508 vga\.pos_r\[4\]
*509 vga\.pos_r\[5\]
*510 vga\.pos_r\[6\]
*511 vga\.pos_r\[7\]
*512 vga\.pos_r\[8\]
*513 vga\.right_down_1d
*514 vga\.right_up_1d
*515 vga\.vs
*516 vga\.vs_out
*517 FILLER_0_0_109
*518 FILLER_0_0_113
*519 FILLER_0_0_125
*520 FILLER_0_0_137
*521 FILLER_0_0_141
*522 FILLER_0_0_15
*523 FILLER_0_0_153
*524 FILLER_0_0_165
*525 FILLER_0_0_169
*526 FILLER_0_0_181
*527 FILLER_0_0_193
*528 FILLER_0_0_197
*529 FILLER_0_0_209
*530 FILLER_0_0_221
*531 FILLER_0_0_225
*532 FILLER_0_0_237
*533 FILLER_0_0_249
*534 FILLER_0_0_253
*535 FILLER_0_0_265
*536 FILLER_0_0_27
*537 FILLER_0_0_277
*538 FILLER_0_0_281
*539 FILLER_0_0_29
*540 FILLER_0_0_293
*541 FILLER_0_0_3
*542 FILLER_0_0_305
*543 FILLER_0_0_309
*544 FILLER_0_0_321
*545 FILLER_0_0_333
*546 FILLER_0_0_337
*547 FILLER_0_0_349
*548 FILLER_0_0_41
*549 FILLER_0_0_53
*550 FILLER_0_0_57
*551 FILLER_0_0_69
*552 FILLER_0_0_81
*553 FILLER_0_0_85
*554 FILLER_0_0_97
*555 FILLER_0_10_109
*556 FILLER_0_10_121
*557 FILLER_0_10_133
*558 FILLER_0_10_139
*559 FILLER_0_10_141
*560 FILLER_0_10_15
*561 FILLER_0_10_153
*562 FILLER_0_10_165
*563 FILLER_0_10_177
*564 FILLER_0_10_189
*565 FILLER_0_10_195
*566 FILLER_0_10_197
*567 FILLER_0_10_209
*568 FILLER_0_10_221
*569 FILLER_0_10_233
*570 FILLER_0_10_245
*571 FILLER_0_10_251
*572 FILLER_0_10_253
*573 FILLER_0_10_265
*574 FILLER_0_10_27
*575 FILLER_0_10_277
*576 FILLER_0_10_289
*577 FILLER_0_10_29
*578 FILLER_0_10_3
*579 FILLER_0_10_301
*580 FILLER_0_10_307
*581 FILLER_0_10_309
*582 FILLER_0_10_321
*583 FILLER_0_10_333
*584 FILLER_0_10_345
*585 FILLER_0_10_41
*586 FILLER_0_10_53
*587 FILLER_0_10_65
*588 FILLER_0_10_77
*589 FILLER_0_10_83
*590 FILLER_0_10_85
*591 FILLER_0_10_97
*592 FILLER_0_11_105
*593 FILLER_0_11_111
*594 FILLER_0_11_113
*595 FILLER_0_11_125
*596 FILLER_0_11_137
*597 FILLER_0_11_149
*598 FILLER_0_11_15
*599 FILLER_0_11_161
*600 FILLER_0_11_167
*601 FILLER_0_11_169
*602 FILLER_0_11_181
*603 FILLER_0_11_193
*604 FILLER_0_11_205
*605 FILLER_0_11_217
*606 FILLER_0_11_223
*607 FILLER_0_11_225
*608 FILLER_0_11_237
*609 FILLER_0_11_249
*610 FILLER_0_11_261
*611 FILLER_0_11_27
*612 FILLER_0_11_273
*613 FILLER_0_11_279
*614 FILLER_0_11_281
*615 FILLER_0_11_293
*616 FILLER_0_11_3
*617 FILLER_0_11_305
*618 FILLER_0_11_317
*619 FILLER_0_11_329
*620 FILLER_0_11_335
*621 FILLER_0_11_337
*622 FILLER_0_11_349
*623 FILLER_0_11_39
*624 FILLER_0_11_51
*625 FILLER_0_11_55
*626 FILLER_0_11_57
*627 FILLER_0_11_69
*628 FILLER_0_11_81
*629 FILLER_0_11_93
*630 FILLER_0_12_109
*631 FILLER_0_12_121
*632 FILLER_0_12_133
*633 FILLER_0_12_139
*634 FILLER_0_12_141
*635 FILLER_0_12_15
*636 FILLER_0_12_153
*637 FILLER_0_12_165
*638 FILLER_0_12_177
*639 FILLER_0_12_189
*640 FILLER_0_12_195
*641 FILLER_0_12_197
*642 FILLER_0_12_209
*643 FILLER_0_12_221
*644 FILLER_0_12_233
*645 FILLER_0_12_245
*646 FILLER_0_12_251
*647 FILLER_0_12_253
*648 FILLER_0_12_265
*649 FILLER_0_12_27
*650 FILLER_0_12_277
*651 FILLER_0_12_289
*652 FILLER_0_12_29
*653 FILLER_0_12_3
*654 FILLER_0_12_301
*655 FILLER_0_12_307
*656 FILLER_0_12_309
*657 FILLER_0_12_321
*658 FILLER_0_12_333
*659 FILLER_0_12_345
*660 FILLER_0_12_41
*661 FILLER_0_12_53
*662 FILLER_0_12_65
*663 FILLER_0_12_77
*664 FILLER_0_12_83
*665 FILLER_0_12_85
*666 FILLER_0_12_97
*667 FILLER_0_13_105
*668 FILLER_0_13_111
*669 FILLER_0_13_113
*670 FILLER_0_13_125
*671 FILLER_0_13_137
*672 FILLER_0_13_149
*673 FILLER_0_13_15
*674 FILLER_0_13_161
*675 FILLER_0_13_167
*676 FILLER_0_13_169
*677 FILLER_0_13_181
*678 FILLER_0_13_193
*679 FILLER_0_13_205
*680 FILLER_0_13_217
*681 FILLER_0_13_223
*682 FILLER_0_13_225
*683 FILLER_0_13_237
*684 FILLER_0_13_249
*685 FILLER_0_13_261
*686 FILLER_0_13_27
*687 FILLER_0_13_273
*688 FILLER_0_13_279
*689 FILLER_0_13_281
*690 FILLER_0_13_293
*691 FILLER_0_13_3
*692 FILLER_0_13_305
*693 FILLER_0_13_317
*694 FILLER_0_13_329
*695 FILLER_0_13_335
*696 FILLER_0_13_337
*697 FILLER_0_13_349
*698 FILLER_0_13_39
*699 FILLER_0_13_51
*700 FILLER_0_13_55
*701 FILLER_0_13_57
*702 FILLER_0_13_69
*703 FILLER_0_13_81
*704 FILLER_0_13_93
*705 FILLER_0_14_109
*706 FILLER_0_14_121
*707 FILLER_0_14_133
*708 FILLER_0_14_139
*709 FILLER_0_14_141
*710 FILLER_0_14_15
*711 FILLER_0_14_153
*712 FILLER_0_14_165
*713 FILLER_0_14_177
*714 FILLER_0_14_189
*715 FILLER_0_14_195
*716 FILLER_0_14_197
*717 FILLER_0_14_209
*718 FILLER_0_14_221
*719 FILLER_0_14_233
*720 FILLER_0_14_245
*721 FILLER_0_14_251
*722 FILLER_0_14_253
*723 FILLER_0_14_265
*724 FILLER_0_14_27
*725 FILLER_0_14_277
*726 FILLER_0_14_289
*727 FILLER_0_14_29
*728 FILLER_0_14_3
*729 FILLER_0_14_301
*730 FILLER_0_14_307
*731 FILLER_0_14_309
*732 FILLER_0_14_321
*733 FILLER_0_14_333
*734 FILLER_0_14_345
*735 FILLER_0_14_41
*736 FILLER_0_14_53
*737 FILLER_0_14_65
*738 FILLER_0_14_77
*739 FILLER_0_14_83
*740 FILLER_0_14_85
*741 FILLER_0_14_97
*742 FILLER_0_15_105
*743 FILLER_0_15_111
*744 FILLER_0_15_113
*745 FILLER_0_15_125
*746 FILLER_0_15_137
*747 FILLER_0_15_149
*748 FILLER_0_15_15
*749 FILLER_0_15_161
*750 FILLER_0_15_167
*751 FILLER_0_15_169
*752 FILLER_0_15_181
*753 FILLER_0_15_193
*754 FILLER_0_15_205
*755 FILLER_0_15_217
*756 FILLER_0_15_223
*757 FILLER_0_15_225
*758 FILLER_0_15_237
*759 FILLER_0_15_249
*760 FILLER_0_15_261
*761 FILLER_0_15_27
*762 FILLER_0_15_273
*763 FILLER_0_15_279
*764 FILLER_0_15_281
*765 FILLER_0_15_293
*766 FILLER_0_15_3
*767 FILLER_0_15_305
*768 FILLER_0_15_317
*769 FILLER_0_15_329
*770 FILLER_0_15_335
*771 FILLER_0_15_337
*772 FILLER_0_15_349
*773 FILLER_0_15_39
*774 FILLER_0_15_51
*775 FILLER_0_15_55
*776 FILLER_0_15_57
*777 FILLER_0_15_69
*778 FILLER_0_15_81
*779 FILLER_0_15_93
*780 FILLER_0_16_109
*781 FILLER_0_16_121
*782 FILLER_0_16_133
*783 FILLER_0_16_139
*784 FILLER_0_16_141
*785 FILLER_0_16_15
*786 FILLER_0_16_153
*787 FILLER_0_16_165
*788 FILLER_0_16_177
*789 FILLER_0_16_189
*790 FILLER_0_16_195
*791 FILLER_0_16_197
*792 FILLER_0_16_209
*793 FILLER_0_16_221
*794 FILLER_0_16_233
*795 FILLER_0_16_245
*796 FILLER_0_16_251
*797 FILLER_0_16_253
*798 FILLER_0_16_265
*799 FILLER_0_16_27
*800 FILLER_0_16_277
*801 FILLER_0_16_289
*802 FILLER_0_16_29
*803 FILLER_0_16_3
*804 FILLER_0_16_301
*805 FILLER_0_16_307
*806 FILLER_0_16_309
*807 FILLER_0_16_321
*808 FILLER_0_16_333
*809 FILLER_0_16_345
*810 FILLER_0_16_41
*811 FILLER_0_16_53
*812 FILLER_0_16_65
*813 FILLER_0_16_77
*814 FILLER_0_16_83
*815 FILLER_0_16_85
*816 FILLER_0_16_97
*817 FILLER_0_17_105
*818 FILLER_0_17_111
*819 FILLER_0_17_113
*820 FILLER_0_17_125
*821 FILLER_0_17_137
*822 FILLER_0_17_149
*823 FILLER_0_17_15
*824 FILLER_0_17_161
*825 FILLER_0_17_167
*826 FILLER_0_17_169
*827 FILLER_0_17_181
*828 FILLER_0_17_193
*829 FILLER_0_17_205
*830 FILLER_0_17_217
*831 FILLER_0_17_223
*832 FILLER_0_17_225
*833 FILLER_0_17_237
*834 FILLER_0_17_249
*835 FILLER_0_17_261
*836 FILLER_0_17_27
*837 FILLER_0_17_273
*838 FILLER_0_17_279
*839 FILLER_0_17_281
*840 FILLER_0_17_293
*841 FILLER_0_17_3
*842 FILLER_0_17_305
*843 FILLER_0_17_317
*844 FILLER_0_17_329
*845 FILLER_0_17_335
*846 FILLER_0_17_337
*847 FILLER_0_17_349
*848 FILLER_0_17_39
*849 FILLER_0_17_51
*850 FILLER_0_17_55
*851 FILLER_0_17_57
*852 FILLER_0_17_69
*853 FILLER_0_17_81
*854 FILLER_0_17_93
*855 FILLER_0_18_109
*856 FILLER_0_18_121
*857 FILLER_0_18_133
*858 FILLER_0_18_139
*859 FILLER_0_18_141
*860 FILLER_0_18_15
*861 FILLER_0_18_153
*862 FILLER_0_18_165
*863 FILLER_0_18_177
*864 FILLER_0_18_189
*865 FILLER_0_18_195
*866 FILLER_0_18_197
*867 FILLER_0_18_209
*868 FILLER_0_18_221
*869 FILLER_0_18_233
*870 FILLER_0_18_245
*871 FILLER_0_18_251
*872 FILLER_0_18_253
*873 FILLER_0_18_265
*874 FILLER_0_18_27
*875 FILLER_0_18_277
*876 FILLER_0_18_289
*877 FILLER_0_18_29
*878 FILLER_0_18_3
*879 FILLER_0_18_301
*880 FILLER_0_18_307
*881 FILLER_0_18_309
*882 FILLER_0_18_321
*883 FILLER_0_18_333
*884 FILLER_0_18_345
*885 FILLER_0_18_41
*886 FILLER_0_18_53
*887 FILLER_0_18_65
*888 FILLER_0_18_77
*889 FILLER_0_18_83
*890 FILLER_0_18_85
*891 FILLER_0_18_97
*892 FILLER_0_19_105
*893 FILLER_0_19_111
*894 FILLER_0_19_113
*895 FILLER_0_19_125
*896 FILLER_0_19_137
*897 FILLER_0_19_149
*898 FILLER_0_19_15
*899 FILLER_0_19_161
*900 FILLER_0_19_167
*901 FILLER_0_19_169
*902 FILLER_0_19_181
*903 FILLER_0_19_193
*904 FILLER_0_19_205
*905 FILLER_0_19_217
*906 FILLER_0_19_223
*907 FILLER_0_19_225
*908 FILLER_0_19_237
*909 FILLER_0_19_249
*910 FILLER_0_19_261
*911 FILLER_0_19_27
*912 FILLER_0_19_273
*913 FILLER_0_19_279
*914 FILLER_0_19_281
*915 FILLER_0_19_293
*916 FILLER_0_19_3
*917 FILLER_0_19_305
*918 FILLER_0_19_317
*919 FILLER_0_19_329
*920 FILLER_0_19_335
*921 FILLER_0_19_337
*922 FILLER_0_19_349
*923 FILLER_0_19_39
*924 FILLER_0_19_51
*925 FILLER_0_19_55
*926 FILLER_0_19_57
*927 FILLER_0_19_69
*928 FILLER_0_19_81
*929 FILLER_0_19_93
*930 FILLER_0_1_105
*931 FILLER_0_1_111
*932 FILLER_0_1_113
*933 FILLER_0_1_125
*934 FILLER_0_1_137
*935 FILLER_0_1_149
*936 FILLER_0_1_15
*937 FILLER_0_1_161
*938 FILLER_0_1_167
*939 FILLER_0_1_169
*940 FILLER_0_1_181
*941 FILLER_0_1_193
*942 FILLER_0_1_205
*943 FILLER_0_1_217
*944 FILLER_0_1_223
*945 FILLER_0_1_225
*946 FILLER_0_1_237
*947 FILLER_0_1_249
*948 FILLER_0_1_261
*949 FILLER_0_1_27
*950 FILLER_0_1_273
*951 FILLER_0_1_279
*952 FILLER_0_1_281
*953 FILLER_0_1_293
*954 FILLER_0_1_3
*955 FILLER_0_1_305
*956 FILLER_0_1_317
*957 FILLER_0_1_329
*958 FILLER_0_1_335
*959 FILLER_0_1_337
*960 FILLER_0_1_349
*961 FILLER_0_1_39
*962 FILLER_0_1_51
*963 FILLER_0_1_55
*964 FILLER_0_1_57
*965 FILLER_0_1_69
*966 FILLER_0_1_81
*967 FILLER_0_1_93
*968 FILLER_0_20_109
*969 FILLER_0_20_121
*970 FILLER_0_20_133
*971 FILLER_0_20_139
*972 FILLER_0_20_141
*973 FILLER_0_20_15
*974 FILLER_0_20_153
*975 FILLER_0_20_165
*976 FILLER_0_20_177
*977 FILLER_0_20_189
*978 FILLER_0_20_195
*979 FILLER_0_20_197
*980 FILLER_0_20_209
*981 FILLER_0_20_221
*982 FILLER_0_20_233
*983 FILLER_0_20_245
*984 FILLER_0_20_251
*985 FILLER_0_20_253
*986 FILLER_0_20_265
*987 FILLER_0_20_27
*988 FILLER_0_20_277
*989 FILLER_0_20_289
*990 FILLER_0_20_29
*991 FILLER_0_20_3
*992 FILLER_0_20_301
*993 FILLER_0_20_307
*994 FILLER_0_20_309
*995 FILLER_0_20_321
*996 FILLER_0_20_333
*997 FILLER_0_20_339
*998 FILLER_0_20_41
*999 FILLER_0_20_53
*1000 FILLER_0_20_65
*1001 FILLER_0_20_77
*1002 FILLER_0_20_83
*1003 FILLER_0_20_85
*1004 FILLER_0_20_97
*1005 FILLER_0_21_105
*1006 FILLER_0_21_111
*1007 FILLER_0_21_113
*1008 FILLER_0_21_125
*1009 FILLER_0_21_137
*1010 FILLER_0_21_149
*1011 FILLER_0_21_15
*1012 FILLER_0_21_161
*1013 FILLER_0_21_167
*1014 FILLER_0_21_169
*1015 FILLER_0_21_181
*1016 FILLER_0_21_193
*1017 FILLER_0_21_205
*1018 FILLER_0_21_223
*1019 FILLER_0_21_225
*1020 FILLER_0_21_233
*1021 FILLER_0_21_237
*1022 FILLER_0_21_243
*1023 FILLER_0_21_255
*1024 FILLER_0_21_261
*1025 FILLER_0_21_27
*1026 FILLER_0_21_278
*1027 FILLER_0_21_285
*1028 FILLER_0_21_297
*1029 FILLER_0_21_3
*1030 FILLER_0_21_309
*1031 FILLER_0_21_333
*1032 FILLER_0_21_349
*1033 FILLER_0_21_39
*1034 FILLER_0_21_51
*1035 FILLER_0_21_55
*1036 FILLER_0_21_57
*1037 FILLER_0_21_69
*1038 FILLER_0_21_81
*1039 FILLER_0_21_93
*1040 FILLER_0_22_109
*1041 FILLER_0_22_121
*1042 FILLER_0_22_133
*1043 FILLER_0_22_139
*1044 FILLER_0_22_141
*1045 FILLER_0_22_15
*1046 FILLER_0_22_153
*1047 FILLER_0_22_178
*1048 FILLER_0_22_190
*1049 FILLER_0_22_197
*1050 FILLER_0_22_202
*1051 FILLER_0_22_210
*1052 FILLER_0_22_231
*1053 FILLER_0_22_249
*1054 FILLER_0_22_27
*1055 FILLER_0_22_273
*1056 FILLER_0_22_29
*1057 FILLER_0_22_3
*1058 FILLER_0_22_307
*1059 FILLER_0_22_309
*1060 FILLER_0_22_326
*1061 FILLER_0_22_334
*1062 FILLER_0_22_41
*1063 FILLER_0_22_53
*1064 FILLER_0_22_65
*1065 FILLER_0_22_77
*1066 FILLER_0_22_83
*1067 FILLER_0_22_85
*1068 FILLER_0_22_97
*1069 FILLER_0_23_105
*1070 FILLER_0_23_111
*1071 FILLER_0_23_113
*1072 FILLER_0_23_125
*1073 FILLER_0_23_137
*1074 FILLER_0_23_145
*1075 FILLER_0_23_15
*1076 FILLER_0_23_155
*1077 FILLER_0_23_165
*1078 FILLER_0_23_169
*1079 FILLER_0_23_173
*1080 FILLER_0_23_195
*1081 FILLER_0_23_209
*1082 FILLER_0_23_216
*1083 FILLER_0_23_225
*1084 FILLER_0_23_245
*1085 FILLER_0_23_253
*1086 FILLER_0_23_258
*1087 FILLER_0_23_262
*1088 FILLER_0_23_268
*1089 FILLER_0_23_27
*1090 FILLER_0_23_274
*1091 FILLER_0_23_279
*1092 FILLER_0_23_281
*1093 FILLER_0_23_292
*1094 FILLER_0_23_299
*1095 FILLER_0_23_3
*1096 FILLER_0_23_311
*1097 FILLER_0_23_341
*1098 FILLER_0_23_350
*1099 FILLER_0_23_39
*1100 FILLER_0_23_51
*1101 FILLER_0_23_55
*1102 FILLER_0_23_57
*1103 FILLER_0_23_69
*1104 FILLER_0_23_81
*1105 FILLER_0_23_93
*1106 FILLER_0_24_109
*1107 FILLER_0_24_121
*1108 FILLER_0_24_133
*1109 FILLER_0_24_15
*1110 FILLER_0_24_158
*1111 FILLER_0_24_168
*1112 FILLER_0_24_172
*1113 FILLER_0_24_183
*1114 FILLER_0_24_189
*1115 FILLER_0_24_214
*1116 FILLER_0_24_225
*1117 FILLER_0_24_234
*1118 FILLER_0_24_253
*1119 FILLER_0_24_27
*1120 FILLER_0_24_272
*1121 FILLER_0_24_278
*1122 FILLER_0_24_288
*1123 FILLER_0_24_29
*1124 FILLER_0_24_296
*1125 FILLER_0_24_3
*1126 FILLER_0_24_307
*1127 FILLER_0_24_328
*1128 FILLER_0_24_41
*1129 FILLER_0_24_53
*1130 FILLER_0_24_65
*1131 FILLER_0_24_77
*1132 FILLER_0_24_83
*1133 FILLER_0_24_85
*1134 FILLER_0_24_97
*1135 FILLER_0_25_105
*1136 FILLER_0_25_111
*1137 FILLER_0_25_113
*1138 FILLER_0_25_125
*1139 FILLER_0_25_137
*1140 FILLER_0_25_141
*1141 FILLER_0_25_15
*1142 FILLER_0_25_166
*1143 FILLER_0_25_185
*1144 FILLER_0_25_203
*1145 FILLER_0_25_211
*1146 FILLER_0_25_225
*1147 FILLER_0_25_233
*1148 FILLER_0_25_247
*1149 FILLER_0_25_266
*1150 FILLER_0_25_27
*1151 FILLER_0_25_270
*1152 FILLER_0_25_274
*1153 FILLER_0_25_297
*1154 FILLER_0_25_3
*1155 FILLER_0_25_334
*1156 FILLER_0_25_342
*1157 FILLER_0_25_350
*1158 FILLER_0_25_39
*1159 FILLER_0_25_51
*1160 FILLER_0_25_55
*1161 FILLER_0_25_57
*1162 FILLER_0_25_69
*1163 FILLER_0_25_81
*1164 FILLER_0_25_93
*1165 FILLER_0_26_116
*1166 FILLER_0_26_122
*1167 FILLER_0_26_141
*1168 FILLER_0_26_15
*1169 FILLER_0_26_150
*1170 FILLER_0_26_159
*1171 FILLER_0_26_171
*1172 FILLER_0_26_181
*1173 FILLER_0_26_193
*1174 FILLER_0_26_249
*1175 FILLER_0_26_262
*1176 FILLER_0_26_27
*1177 FILLER_0_26_278
*1178 FILLER_0_26_29
*1179 FILLER_0_26_291
*1180 FILLER_0_26_3
*1181 FILLER_0_26_304
*1182 FILLER_0_26_324
*1183 FILLER_0_26_41
*1184 FILLER_0_26_53
*1185 FILLER_0_26_65
*1186 FILLER_0_26_77
*1187 FILLER_0_26_83
*1188 FILLER_0_26_85
*1189 FILLER_0_27_105
*1190 FILLER_0_27_111
*1191 FILLER_0_27_120
*1192 FILLER_0_27_133
*1193 FILLER_0_27_138
*1194 FILLER_0_27_15
*1195 FILLER_0_27_164
*1196 FILLER_0_27_169
*1197 FILLER_0_27_186
*1198 FILLER_0_27_198
*1199 FILLER_0_27_208
*1200 FILLER_0_27_223
*1201 FILLER_0_27_228
*1202 FILLER_0_27_235
*1203 FILLER_0_27_247
*1204 FILLER_0_27_263
*1205 FILLER_0_27_27
*1206 FILLER_0_27_284
*1207 FILLER_0_27_293
*1208 FILLER_0_27_3
*1209 FILLER_0_27_311
*1210 FILLER_0_27_39
*1211 FILLER_0_27_51
*1212 FILLER_0_27_55
*1213 FILLER_0_27_57
*1214 FILLER_0_27_69
*1215 FILLER_0_27_81
*1216 FILLER_0_27_93
*1217 FILLER_0_28_111
*1218 FILLER_0_28_133
*1219 FILLER_0_28_15
*1220 FILLER_0_28_158
*1221 FILLER_0_28_167
*1222 FILLER_0_28_184
*1223 FILLER_0_28_204
*1224 FILLER_0_28_211
*1225 FILLER_0_28_220
*1226 FILLER_0_28_247
*1227 FILLER_0_28_251
*1228 FILLER_0_28_253
*1229 FILLER_0_28_259
*1230 FILLER_0_28_27
*1231 FILLER_0_28_285
*1232 FILLER_0_28_29
*1233 FILLER_0_28_3
*1234 FILLER_0_28_300
*1235 FILLER_0_28_316
*1236 FILLER_0_28_331
*1237 FILLER_0_28_41
*1238 FILLER_0_28_53
*1239 FILLER_0_28_65
*1240 FILLER_0_28_77
*1241 FILLER_0_28_83
*1242 FILLER_0_29_133
*1243 FILLER_0_29_15
*1244 FILLER_0_29_165
*1245 FILLER_0_29_169
*1246 FILLER_0_29_181
*1247 FILLER_0_29_199
*1248 FILLER_0_29_230
*1249 FILLER_0_29_237
*1250 FILLER_0_29_241
*1251 FILLER_0_29_249
*1252 FILLER_0_29_253
*1253 FILLER_0_29_27
*1254 FILLER_0_29_287
*1255 FILLER_0_29_291
*1256 FILLER_0_29_3
*1257 FILLER_0_29_304
*1258 FILLER_0_29_316
*1259 FILLER_0_29_320
*1260 FILLER_0_29_335
*1261 FILLER_0_29_345
*1262 FILLER_0_29_39
*1263 FILLER_0_29_51
*1264 FILLER_0_29_55
*1265 FILLER_0_29_57
*1266 FILLER_0_29_96
*1267 FILLER_0_2_109
*1268 FILLER_0_2_121
*1269 FILLER_0_2_133
*1270 FILLER_0_2_139
*1271 FILLER_0_2_141
*1272 FILLER_0_2_15
*1273 FILLER_0_2_153
*1274 FILLER_0_2_165
*1275 FILLER_0_2_177
*1276 FILLER_0_2_189
*1277 FILLER_0_2_195
*1278 FILLER_0_2_197
*1279 FILLER_0_2_209
*1280 FILLER_0_2_221
*1281 FILLER_0_2_233
*1282 FILLER_0_2_245
*1283 FILLER_0_2_251
*1284 FILLER_0_2_253
*1285 FILLER_0_2_265
*1286 FILLER_0_2_27
*1287 FILLER_0_2_277
*1288 FILLER_0_2_289
*1289 FILLER_0_2_29
*1290 FILLER_0_2_3
*1291 FILLER_0_2_301
*1292 FILLER_0_2_307
*1293 FILLER_0_2_309
*1294 FILLER_0_2_321
*1295 FILLER_0_2_333
*1296 FILLER_0_2_345
*1297 FILLER_0_2_41
*1298 FILLER_0_2_53
*1299 FILLER_0_2_65
*1300 FILLER_0_2_77
*1301 FILLER_0_2_83
*1302 FILLER_0_2_85
*1303 FILLER_0_2_97
*1304 FILLER_0_30_110
*1305 FILLER_0_30_134
*1306 FILLER_0_30_15
*1307 FILLER_0_30_157
*1308 FILLER_0_30_186
*1309 FILLER_0_30_194
*1310 FILLER_0_30_197
*1311 FILLER_0_30_232
*1312 FILLER_0_30_251
*1313 FILLER_0_30_256
*1314 FILLER_0_30_27
*1315 FILLER_0_30_286
*1316 FILLER_0_30_29
*1317 FILLER_0_30_295
*1318 FILLER_0_30_299
*1319 FILLER_0_30_3
*1320 FILLER_0_30_41
*1321 FILLER_0_30_53
*1322 FILLER_0_30_74
*1323 FILLER_0_30_85
*1324 FILLER_0_30_91
*1325 FILLER_0_30_97
*1326 FILLER_0_31_101
*1327 FILLER_0_31_117
*1328 FILLER_0_31_131
*1329 FILLER_0_31_141
*1330 FILLER_0_31_15
*1331 FILLER_0_31_166
*1332 FILLER_0_31_172
*1333 FILLER_0_31_182
*1334 FILLER_0_31_191
*1335 FILLER_0_31_202
*1336 FILLER_0_31_214
*1337 FILLER_0_31_222
*1338 FILLER_0_31_228
*1339 FILLER_0_31_236
*1340 FILLER_0_31_249
*1341 FILLER_0_31_267
*1342 FILLER_0_31_27
*1343 FILLER_0_31_279
*1344 FILLER_0_31_281
*1345 FILLER_0_31_293
*1346 FILLER_0_31_3
*1347 FILLER_0_31_301
*1348 FILLER_0_31_319
*1349 FILLER_0_31_337
*1350 FILLER_0_31_349
*1351 FILLER_0_31_39
*1352 FILLER_0_31_51
*1353 FILLER_0_31_55
*1354 FILLER_0_31_57
*1355 FILLER_0_31_69
*1356 FILLER_0_31_87
*1357 FILLER_0_32_101
*1358 FILLER_0_32_116
*1359 FILLER_0_32_122
*1360 FILLER_0_32_128
*1361 FILLER_0_32_137
*1362 FILLER_0_32_141
*1363 FILLER_0_32_15
*1364 FILLER_0_32_163
*1365 FILLER_0_32_195
*1366 FILLER_0_32_202
*1367 FILLER_0_32_208
*1368 FILLER_0_32_227
*1369 FILLER_0_32_250
*1370 FILLER_0_32_253
*1371 FILLER_0_32_261
*1372 FILLER_0_32_266
*1373 FILLER_0_32_27
*1374 FILLER_0_32_280
*1375 FILLER_0_32_29
*1376 FILLER_0_32_3
*1377 FILLER_0_32_305
*1378 FILLER_0_32_318
*1379 FILLER_0_32_329
*1380 FILLER_0_32_333
*1381 FILLER_0_32_41
*1382 FILLER_0_32_53
*1383 FILLER_0_32_73
*1384 FILLER_0_32_78
*1385 FILLER_0_32_85
*1386 FILLER_0_32_97
*1387 FILLER_0_33_100
*1388 FILLER_0_33_110
*1389 FILLER_0_33_113
*1390 FILLER_0_33_137
*1391 FILLER_0_33_143
*1392 FILLER_0_33_15
*1393 FILLER_0_33_153
*1394 FILLER_0_33_162
*1395 FILLER_0_33_167
*1396 FILLER_0_33_169
*1397 FILLER_0_33_181
*1398 FILLER_0_33_195
*1399 FILLER_0_33_203
*1400 FILLER_0_33_216
*1401 FILLER_0_33_237
*1402 FILLER_0_33_257
*1403 FILLER_0_33_27
*1404 FILLER_0_33_274
*1405 FILLER_0_33_281
*1406 FILLER_0_33_295
*1407 FILLER_0_33_3
*1408 FILLER_0_33_308
*1409 FILLER_0_33_335
*1410 FILLER_0_33_341
*1411 FILLER_0_33_39
*1412 FILLER_0_33_51
*1413 FILLER_0_33_55
*1414 FILLER_0_33_82
*1415 FILLER_0_34_101
*1416 FILLER_0_34_115
*1417 FILLER_0_34_133
*1418 FILLER_0_34_139
*1419 FILLER_0_34_144
*1420 FILLER_0_34_15
*1421 FILLER_0_34_179
*1422 FILLER_0_34_187
*1423 FILLER_0_34_194
*1424 FILLER_0_34_197
*1425 FILLER_0_34_205
*1426 FILLER_0_34_217
*1427 FILLER_0_34_238
*1428 FILLER_0_34_250
*1429 FILLER_0_34_259
*1430 FILLER_0_34_263
*1431 FILLER_0_34_27
*1432 FILLER_0_34_271
*1433 FILLER_0_34_277
*1434 FILLER_0_34_29
*1435 FILLER_0_34_298
*1436 FILLER_0_34_3
*1437 FILLER_0_34_320
*1438 FILLER_0_34_329
*1439 FILLER_0_34_41
*1440 FILLER_0_34_53
*1441 FILLER_0_34_65
*1442 FILLER_0_34_79
*1443 FILLER_0_34_85
*1444 FILLER_0_35_109
*1445 FILLER_0_35_118
*1446 FILLER_0_35_15
*1447 FILLER_0_35_157
*1448 FILLER_0_35_165
*1449 FILLER_0_35_186
*1450 FILLER_0_35_206
*1451 FILLER_0_35_218
*1452 FILLER_0_35_237
*1453 FILLER_0_35_247
*1454 FILLER_0_35_251
*1455 FILLER_0_35_259
*1456 FILLER_0_35_27
*1457 FILLER_0_35_273
*1458 FILLER_0_35_279
*1459 FILLER_0_35_281
*1460 FILLER_0_35_297
*1461 FILLER_0_35_3
*1462 FILLER_0_35_311
*1463 FILLER_0_35_315
*1464 FILLER_0_35_331
*1465 FILLER_0_35_335
*1466 FILLER_0_35_341
*1467 FILLER_0_35_39
*1468 FILLER_0_35_51
*1469 FILLER_0_35_55
*1470 FILLER_0_35_57
*1471 FILLER_0_35_85
*1472 FILLER_0_35_89
*1473 FILLER_0_36_123
*1474 FILLER_0_36_127
*1475 FILLER_0_36_134
*1476 FILLER_0_36_147
*1477 FILLER_0_36_15
*1478 FILLER_0_36_167
*1479 FILLER_0_36_192
*1480 FILLER_0_36_216
*1481 FILLER_0_36_234
*1482 FILLER_0_36_251
*1483 FILLER_0_36_253
*1484 FILLER_0_36_259
*1485 FILLER_0_36_27
*1486 FILLER_0_36_278
*1487 FILLER_0_36_282
*1488 FILLER_0_36_29
*1489 FILLER_0_36_299
*1490 FILLER_0_36_3
*1491 FILLER_0_36_307
*1492 FILLER_0_36_318
*1493 FILLER_0_36_41
*1494 FILLER_0_36_53
*1495 FILLER_0_36_65
*1496 FILLER_0_36_77
*1497 FILLER_0_36_83
*1498 FILLER_0_36_85
*1499 FILLER_0_36_97
*1500 FILLER_0_37_105
*1501 FILLER_0_37_111
*1502 FILLER_0_37_113
*1503 FILLER_0_37_143
*1504 FILLER_0_37_15
*1505 FILLER_0_37_151
*1506 FILLER_0_37_166
*1507 FILLER_0_37_169
*1508 FILLER_0_37_186
*1509 FILLER_0_37_193
*1510 FILLER_0_37_203
*1511 FILLER_0_37_27
*1512 FILLER_0_37_275
*1513 FILLER_0_37_279
*1514 FILLER_0_37_3
*1515 FILLER_0_37_304
*1516 FILLER_0_37_334
*1517 FILLER_0_37_348
*1518 FILLER_0_37_39
*1519 FILLER_0_37_51
*1520 FILLER_0_37_55
*1521 FILLER_0_37_57
*1522 FILLER_0_37_69
*1523 FILLER_0_37_81
*1524 FILLER_0_37_93
*1525 FILLER_0_38_103
*1526 FILLER_0_38_109
*1527 FILLER_0_38_116
*1528 FILLER_0_38_122
*1529 FILLER_0_38_141
*1530 FILLER_0_38_15
*1531 FILLER_0_38_160
*1532 FILLER_0_38_178
*1533 FILLER_0_38_193
*1534 FILLER_0_38_208
*1535 FILLER_0_38_213
*1536 FILLER_0_38_221
*1537 FILLER_0_38_225
*1538 FILLER_0_38_233
*1539 FILLER_0_38_253
*1540 FILLER_0_38_259
*1541 FILLER_0_38_27
*1542 FILLER_0_38_276
*1543 FILLER_0_38_29
*1544 FILLER_0_38_297
*1545 FILLER_0_38_3
*1546 FILLER_0_38_334
*1547 FILLER_0_38_346
*1548 FILLER_0_38_350
*1549 FILLER_0_38_41
*1550 FILLER_0_38_53
*1551 FILLER_0_38_57
*1552 FILLER_0_38_73
*1553 FILLER_0_38_78
*1554 FILLER_0_38_85
*1555 FILLER_0_38_90
*1556 FILLER_0_38_97
*1557 FILLER_0_3_105
*1558 FILLER_0_3_111
*1559 FILLER_0_3_113
*1560 FILLER_0_3_125
*1561 FILLER_0_3_137
*1562 FILLER_0_3_149
*1563 FILLER_0_3_15
*1564 FILLER_0_3_161
*1565 FILLER_0_3_167
*1566 FILLER_0_3_169
*1567 FILLER_0_3_181
*1568 FILLER_0_3_193
*1569 FILLER_0_3_205
*1570 FILLER_0_3_217
*1571 FILLER_0_3_223
*1572 FILLER_0_3_225
*1573 FILLER_0_3_237
*1574 FILLER_0_3_249
*1575 FILLER_0_3_261
*1576 FILLER_0_3_27
*1577 FILLER_0_3_273
*1578 FILLER_0_3_279
*1579 FILLER_0_3_281
*1580 FILLER_0_3_293
*1581 FILLER_0_3_3
*1582 FILLER_0_3_305
*1583 FILLER_0_3_317
*1584 FILLER_0_3_329
*1585 FILLER_0_3_335
*1586 FILLER_0_3_337
*1587 FILLER_0_3_349
*1588 FILLER_0_3_39
*1589 FILLER_0_3_51
*1590 FILLER_0_3_55
*1591 FILLER_0_3_57
*1592 FILLER_0_3_69
*1593 FILLER_0_3_81
*1594 FILLER_0_3_93
*1595 FILLER_0_4_109
*1596 FILLER_0_4_121
*1597 FILLER_0_4_133
*1598 FILLER_0_4_139
*1599 FILLER_0_4_141
*1600 FILLER_0_4_15
*1601 FILLER_0_4_153
*1602 FILLER_0_4_165
*1603 FILLER_0_4_177
*1604 FILLER_0_4_189
*1605 FILLER_0_4_195
*1606 FILLER_0_4_197
*1607 FILLER_0_4_209
*1608 FILLER_0_4_221
*1609 FILLER_0_4_233
*1610 FILLER_0_4_245
*1611 FILLER_0_4_251
*1612 FILLER_0_4_253
*1613 FILLER_0_4_265
*1614 FILLER_0_4_27
*1615 FILLER_0_4_277
*1616 FILLER_0_4_289
*1617 FILLER_0_4_29
*1618 FILLER_0_4_3
*1619 FILLER_0_4_301
*1620 FILLER_0_4_307
*1621 FILLER_0_4_309
*1622 FILLER_0_4_321
*1623 FILLER_0_4_333
*1624 FILLER_0_4_345
*1625 FILLER_0_4_41
*1626 FILLER_0_4_53
*1627 FILLER_0_4_65
*1628 FILLER_0_4_77
*1629 FILLER_0_4_83