*SPEF "ieee 1481-1999"
*DESIGN "tt_um_tomkeddie_a"
*DATE "11:11:11 Fri 11 11, 1111"
*VENDOR "OpenRCX"
*PROGRAM "Parallel Extraction"
*VERSION "1.0"
*DESIGN_FLOW "NAME_SCOPE LOCAL" "PIN_CAP NONE"
*DIVIDER /
*DELIMITER :
*BUS_DELIMITER []
*T_UNIT 1 NS
*C_UNIT 1 PF
*R_UNIT 1 OHM
*L_UNIT 1 HENRY

*NAME_MAP
*3 clk
*4 ena
*5 rst_n
*6 ui_in[0]
*7 ui_in[1]
*8 ui_in[2]
*9 ui_in[3]
*10 ui_in[4]
*11 ui_in[5]
*12 ui_in[6]
*13 ui_in[7]
*14 uio_in[0]
*15 uio_in[1]
*16 uio_in[2]
*17 uio_in[3]
*18 uio_in[4]
*19 uio_in[5]
*20 uio_in[6]
*21 uio_in[7]
*22 uio_oe[0]
*23 uio_oe[1]
*24 uio_oe[2]
*25 uio_oe[3]
*26 uio_oe[4]
*27 uio_oe[5]
*28 uio_oe[6]
*29 uio_oe[7]
*30 uio_out[0]
*31 uio_out[1]
*32 uio_out[2]
*33 uio_out[3]
*34 uio_out[4]
*35 uio_out[5]
*36 net7
*37 net8
*38 uo_out[0]
*39 uo_out[1]
*40 uo_out[2]
*41 uo_out[3]
*42 uo_out[4]
*43 uo_out[5]
*44 uo_out[6]
*45 uo_out[7]
*46 _0000_
*47 _0001_
*48 _0002_
*49 _0003_
*50 _0004_
*51 _0005_
*52 _0006_
*53 _0007_
*54 _0008_
*55 _0009_
*56 _0010_
*57 _0011_
*58 _0012_
*59 _0013_
*60 _0014_
*61 _0015_
*62 _0016_
*63 _0017_
*64 _0018_
*65 _0019_
*66 _0020_
*67 _0021_
*68 _0022_
*69 _0023_
*70 _0024_
*71 _0025_
*72 _0026_
*73 _0027_
*74 _0028_
*75 _0029_
*76 _0030_
*77 _0031_
*78 _0032_
*79 _0033_
*80 _0034_
*81 _0035_
*82 _0036_
*83 _0037_
*84 _0038_
*85 _0039_
*86 _0040_
*87 _0041_
*88 _0042_
*89 _0043_
*90 _0044_
*91 _0045_
*92 _0046_
*93 _0047_
*94 _0048_
*95 _0049_
*96 _0050_
*97 _0051_
*98 _0052_
*99 _0053_
*100 _0054_
*101 _0055_
*102 _0056_
*103 _0057_
*104 _0058_
*105 _0059_
*106 _0060_
*107 _0061_
*108 _0062_
*109 _0063_
*110 _0064_
*111 _0065_
*112 _0066_
*113 _0067_
*114 _0068_
*115 _0069_
*116 _0070_
*117 _0071_
*118 _0072_
*119 _0073_
*120 _0074_
*121 _0075_
*122 _0076_
*123 _0077_
*124 _0078_
*125 _0079_
*126 _0080_
*127 _0081_
*128 _0082_
*129 _0083_
*130 _0084_
*131 _0085_
*132 _0086_
*133 _0087_
*134 _0088_
*135 _0089_
*136 _0090_
*137 _0091_
*138 _0092_
*139 _0093_
*140 _0094_
*141 _0095_
*142 _0096_
*143 _0097_
*144 _0098_
*145 _0099_
*146 _0100_
*147 _0101_
*148 _0102_
*149 _0103_
*150 _0104_
*151 _0105_
*152 _0106_
*153 _0107_
*154 _0108_
*155 _0109_
*156 _0110_
*157 _0111_
*158 _0112_
*159 _0113_
*160 _0114_
*161 _0115_
*162 _0116_
*163 _0117_
*164 _0118_
*165 _0119_
*166 _0120_
*167 _0121_
*168 _0122_
*169 _0123_
*170 _0124_
*171 _0125_
*172 _0126_
*173 _0127_
*174 _0128_
*175 _0129_
*176 _0130_
*177 _0131_
*178 _0132_
*179 _0133_
*180 _0134_
*181 _0135_
*182 _0136_
*183 _0137_
*184 _0138_
*185 _0139_
*186 _0140_
*187 _0141_
*188 _0142_
*189 _0143_
*190 _0144_
*191 _0145_
*192 _0146_
*193 _0147_
*194 _0148_
*195 _0149_
*196 _0150_
*197 _0151_
*198 _0152_
*199 _0153_
*200 _0154_
*201 _0155_
*202 _0156_
*203 _0157_
*204 _0158_
*205 _0159_
*206 _0160_
*207 _0161_
*208 _0162_
*209 _0163_
*210 _0164_
*211 _0165_
*212 _0166_
*213 _0167_
*214 _0168_
*215 _0169_
*216 _0170_
*217 _0171_
*218 _0172_
*219 _0173_
*220 _0174_
*221 _0175_
*222 _0176_
*223 _0177_
*224 _0178_
*225 _0179_
*226 _0180_
*227 _0181_
*228 _0182_
*229 _0183_
*230 _0184_
*231 _0185_
*232 _0186_
*233 _0187_
*234 _0188_
*235 _0189_
*236 _0190_
*237 _0191_
*238 _0192_
*239 _0193_
*240 _0194_
*241 _0195_
*242 _0196_
*243 _0197_
*244 _0198_
*245 _0199_
*246 _0200_
*247 _0201_
*248 _0202_
*249 _0203_
*250 _0204_
*251 _0205_
*252 _0206_
*253 _0207_
*254 _0208_
*255 _0209_
*256 _0210_
*257 _0211_
*258 _0212_
*259 _0213_
*260 _0214_
*261 _0215_
*262 _0216_
*263 _0217_
*264 _0218_
*265 _0219_
*266 _0220_
*267 _0221_
*268 _0222_
*269 _0223_
*270 _0224_
*271 _0225_
*272 _0226_
*273 _0227_
*274 _0228_
*275 _0229_
*276 _0230_
*277 _0231_
*278 _0232_
*279 _0233_
*280 _0234_
*281 _0235_
*282 _0236_
*283 _0237_
*284 _0238_
*285 _0239_
*286 _0240_
*287 _0241_
*288 _0242_
*289 _0243_
*290 _0244_
*291 _0245_
*292 _0246_
*293 _0247_
*294 _0248_
*295 _0249_
*296 _0250_
*297 _0251_
*298 _0252_
*299 _0253_
*300 _0254_
*301 _0255_
*302 _0256_
*303 _0257_
*304 _0258_
*305 _0259_
*306 _0260_
*307 _0261_
*308 _0262_
*309 _0263_
*310 _0264_
*311 _0265_
*312 _0266_
*313 _0267_
*314 _0268_
*315 _0269_
*316 _0270_
*317 _0271_
*318 _0272_
*319 _0273_
*320 _0274_
*321 _0275_
*322 _0276_
*323 _0277_
*324 _0278_
*325 _0279_
*326 _0280_
*327 _0281_
*328 _0282_
*329 _0283_
*330 _0284_
*331 _0285_
*332 _0286_
*333 _0287_
*334 _0288_
*335 _0289_
*336 _0290_
*337 _0291_
*338 _0292_
*339 _0293_
*340 _0294_
*341 _0295_
*342 _0296_
*343 _0297_
*344 _0298_
*345 _0299_
*346 _0300_
*347 _0301_
*348 _0302_
*349 _0303_
*350 _0304_
*351 _0305_
*352 _0306_
*353 _0307_
*354 _0308_
*355 _0309_
*356 _0310_
*357 _0311_
*358 _0312_
*359 _0313_
*360 _0314_
*361 _0315_
*362 _0316_
*363 _0317_
*364 _0318_
*365 _0319_
*366 _0320_
*367 _0321_
*368 _0322_
*369 _0323_
*370 _0324_
*371 _0325_
*372 _0326_
*373 _0327_
*374 _0328_
*375 _0329_
*376 _0330_
*377 _0331_
*378 _0332_
*379 _0333_
*380 _0334_
*381 _0335_
*382 _0336_
*383 _0337_
*384 _0338_
*385 _0339_
*386 _0340_
*387 _0341_
*388 _0342_
*389 _0343_
*390 _0344_
*391 _0345_
*392 _0346_
*393 _0347_
*394 _0348_
*395 _0349_
*396 _0350_
*397 _0351_
*398 _0352_
*399 _0353_
*400 _0354_
*401 _0355_
*402 _0356_
*403 _0357_
*404 _0358_
*405 _0359_
*406 _0360_
*407 _0361_
*408 _0362_
*409 _0363_
*410 _0364_
*411 _0365_
*412 _0366_
*413 _0367_
*414 _0368_
*415 _0369_
*416 _0370_
*417 _0371_
*418 _0372_
*419 _0373_
*420 _0374_
*421 _0375_
*422 _0376_
*423 _0377_
*424 _0378_
*425 _0379_
*426 _0380_
*427 _0381_
*428 _0382_
*429 _0383_
*430 _0384_
*431 _0385_
*432 _0386_
*433 _0387_
*434 _0388_
*435 _0389_
*436 _0390_
*437 _0391_
*438 _0392_
*439 _0393_
*440 _0394_
*441 _0395_
*442 _0396_
*443 _0397_
*444 _0398_
*445 _0399_
*446 _0400_
*447 _0401_
*448 _0402_
*449 _0403_
*450 _0404_
*451 _0405_
*452 _0406_
*453 _0407_
*454 _0408_
*455 _0409_
*456 _0410_
*457 _0411_
*458 _0412_
*459 _0413_
*460 _0414_
*461 _0415_
*462 _0416_
*463 _0417_
*464 _0418_
*465 _0419_
*466 _0420_
*467 _0421_
*468 _0422_
*469 _0423_
*470 _0424_
*471 _0425_
*472 _0426_
*473 _0427_
*474 _0428_
*475 _0429_
*476 _0430_
*477 _0431_
*478 _0432_
*479 _0433_
*480 _0434_
*481 _0435_
*482 _0436_
*483 _0437_
*484 _0438_
*485 _0439_
*486 _0440_
*487 _0441_
*488 _0442_
*489 _0443_
*490 _0444_
*491 _0445_
*492 _0446_
*493 _0447_
*494 _0448_
*495 _0449_
*496 _0450_
*497 _0451_
*498 _0452_
*499 _0453_
*500 _0454_
*501 _0455_
*502 _0456_
*503 _0457_
*504 _0458_
*505 _0459_
*506 _0460_
*507 _0461_
*508 _0462_
*509 _0463_
*510 _0464_
*511 _0465_
*512 _0466_
*513 _0467_
*514 _0468_
*515 _0469_
*516 _0470_
*517 _0471_
*518 _0472_
*519 _0473_
*520 _0474_
*521 _0475_
*522 _0476_
*523 _0477_
*524 _0478_
*525 _0479_
*526 _0480_
*527 _0481_
*528 _0482_
*529 _0483_
*530 _0484_
*531 _0485_
*532 _0486_
*533 _0487_
*534 _0488_
*535 _0489_
*536 _0490_
*537 _0491_
*538 _0492_
*539 _0493_
*540 _0494_
*541 _0495_
*542 _0496_
*543 _0497_
*544 _0498_
*545 _0499_
*546 _0500_
*547 _0501_
*548 _0502_
*549 _0503_
*550 _0504_
*551 _0505_
*552 _0506_
*553 _0507_
*554 _0508_
*555 _0509_
*556 _0510_
*557 _0511_
*558 _0512_
*559 _0513_
*560 _0514_
*561 _0515_
*562 _0516_
*563 _0517_
*564 _0518_
*565 _0519_
*566 _0520_
*567 _0521_
*568 _0522_
*569 _0523_
*570 _0524_
*571 _0525_
*572 _0526_
*573 _0527_
*574 _0528_
*575 _0529_
*576 _0530_
*577 _0531_
*578 _0532_
*579 _0533_
*580 _0534_
*581 _0535_
*582 _0536_
*583 _0537_
*584 _0538_
*585 _0539_
*586 _0540_
*587 _0541_
*588 _0542_
*589 _0543_
*590 _0544_
*591 _0545_
*592 _0546_
*593 _0547_
*594 _0548_
*595 _0549_
*596 _0550_
*597 _0551_
*598 _0552_
*599 _0553_
*600 _0554_
*601 _0555_
*602 _0556_
*603 _0557_
*604 _0558_
*605 _0559_
*606 _0560_
*607 _0561_
*608 _0562_
*609 _0563_
*610 _0564_
*611 _0565_
*612 _0566_
*613 _0567_
*614 _0568_
*615 _0569_
*616 _0570_
*617 _0571_
*618 _0572_
*619 _0573_
*620 _0574_
*621 _0575_
*622 _0576_
*623 _0577_
*624 _0578_
*625 _0579_
*626 _0580_
*627 _0581_
*628 _0582_
*629 _0583_
*630 _0584_
*631 _0585_
*632 _0586_
*633 _0587_
*634 _0588_
*635 _0589_
*636 _0590_
*637 _0591_
*638 _0592_
*639 _0593_
*640 _0594_
*641 _0595_
*642 _0596_
*643 _0597_
*644 _0598_
*645 _0599_
*646 _0600_
*647 _0601_
*648 _0602_
*649 _0603_
*650 _0604_
*651 _0605_
*652 _0606_
*653 _0607_
*654 _0608_
*655 _0609_
*656 _0610_
*657 _0611_
*658 _0612_
*659 _0613_
*660 _0614_
*661 _0615_
*662 _0616_
*663 _0617_
*664 _0618_
*665 _0619_
*666 _0620_
*667 _0621_
*668 _0622_
*669 _0623_
*670 _0624_
*671 _0625_
*672 _0626_
*673 _0627_
*674 _0628_
*675 _0629_
*676 _0630_
*677 _0631_
*678 _0632_
*679 _0633_
*680 _0634_
*681 _0635_
*682 _0636_
*683 _0637_
*684 _0638_
*685 _0639_
*686 _0640_
*687 _0641_
*688 _0642_
*689 _0643_
*690 _0644_
*691 _0645_
*692 _0646_
*693 _0647_
*694 _0648_
*695 _0649_
*696 _0650_
*697 _0651_
*698 _0652_
*699 _0653_
*700 _0654_
*701 _0655_
*702 _0656_
*703 _0657_
*704 _0658_
*705 _0659_
*706 _0660_
*707 _0661_
*708 _0662_
*709 _0663_
*710 _0664_
*711 _0665_
*712 _0666_
*713 _0667_
*714 _0668_
*715 _0669_
*716 _0670_
*717 _0671_
*718 _0672_
*719 _0673_
*720 _0674_
*721 _0675_
*722 _0676_
*723 _0677_
*724 _0678_
*725 _0679_
*726 _0680_
*727 _0681_
*728 _0682_
*729 _0683_
*730 _0684_
*731 _0685_
*732 _0686_
*733 _0687_
*734 _0688_
*735 _0689_
*736 _0690_
*737 _0691_
*738 _0692_
*739 _0693_
*740 _0694_
*741 _0695_
*742 _0696_
*743 _0697_
*744 _0698_
*745 _0699_
*746 _0700_
*747 _0701_
*748 _0702_
*749 _0703_
*750 _0704_
*751 _0705_
*752 _0706_
*753 _0707_
*754 _0708_
*755 _0709_
*756 _0710_
*757 _0711_
*758 _0712_
*759 _0713_
*760 _0714_
*761 _0715_
*762 _0716_
*763 _0717_
*764 _0718_
*765 _0719_
*766 _0720_
*767 _0721_
*768 _0722_
*769 _0723_
*770 _0724_
*771 _0725_
*772 _0726_
*773 _0727_
*774 _0728_
*775 _0729_
*776 _0730_
*777 _0731_
*778 _0732_
*779 _0733_
*780 _0734_
*781 _0735_
*782 _0736_
*783 _0737_
*784 _0738_
*785 _0739_
*786 _0740_
*787 _0741_
*788 _0742_
*789 _0743_
*790 _0744_
*791 _0745_
*792 _0746_
*793 _0747_
*794 _0748_
*795 _0749_
*796 _0750_
*797 _0751_
*798 _0752_
*799 _0753_
*800 _0754_
*801 _0755_
*802 _0756_
*803 _0757_
*804 _0758_
*805 _0759_
*806 _0760_
*807 _0761_
*808 _0762_
*809 _0763_
*810 _0764_
*811 _0765_
*812 _0766_
*813 _0767_
*814 _0768_
*815 _0769_
*816 _0770_
*817 _0771_
*818 _0772_
*819 _0773_
*820 _0774_
*821 _0775_
*822 _0776_
*823 _0777_
*824 _0778_
*825 _0779_
*826 _0780_
*827 _0781_
*828 _0782_
*829 _0783_
*830 _0784_
*831 _0785_
*832 _0786_
*833 _0787_
*834 _0788_
*835 _0789_
*836 _0790_
*837 _0791_
*838 _0792_
*839 _0793_
*840 _0794_
*841 _0795_
*842 _0796_
*843 _0797_
*844 _0798_
*845 _0799_
*846 _0800_
*847 _0801_
*848 _0802_
*849 _0803_
*850 _0804_
*851 _0805_
*852 _0806_
*853 _0807_
*854 _0808_
*855 _0809_
*856 _0810_
*857 _0811_
*858 _0812_
*859 _0813_
*860 _0814_
*861 _0815_
*862 _0816_
*863 _0817_
*864 clknet_0_clk
*865 clknet_3_0__leaf_clk
*866 clknet_3_1__leaf_clk
*867 clknet_3_2__leaf_clk
*868 clknet_3_3__leaf_clk
*869 clknet_3_4__leaf_clk
*870 clknet_3_5__leaf_clk
*871 clknet_3_6__leaf_clk
*872 clknet_3_7__leaf_clk
*873 net1
*874 net10
*875 net11
*876 net12
*877 net13
*878 net14
*879 net15
*880 net16
*881 net17
*882 net18
*883 net19
*884 net2
*885 net20
*886 net21
*887 net22
*888 net23
*889 net24
*890 net25
*891 net26
*892 net27
*893 net28
*894 net29
*895 net3
*896 net30
*897 net31
*898 net32
*899 net4
*900 net5
*901 net6
*902 net9
*903 vga\.b0
*904 vga\.ball_motion_l
*905 vga\.ball_pos_h\[0\]
*906 vga\.ball_pos_h\[1\]
*907 vga\.ball_pos_h\[2\]
*908 vga\.ball_pos_h\[3\]
*909 vga\.ball_pos_h\[4\]
*910 vga\.ball_pos_h\[5\]
*911 vga\.ball_pos_h\[6\]
*912 vga\.ball_pos_h\[7\]
*913 vga\.ball_pos_h\[8\]
*914 vga\.ball_pos_h\[9\]
*915 vga\.ball_pos_v\[0\]
*916 vga\.ball_pos_v\[1\]
*917 vga\.ball_pos_v\[2\]
*918 vga\.ball_pos_v\[3\]
*919 vga\.ball_pos_v\[4\]
*920 vga\.ball_pos_v\[5\]
*921 vga\.ball_pos_v\[6\]
*922 vga\.ball_pos_v\[7\]
*923 vga\.ball_pos_v\[8\]
*924 vga\.blank_h
*925 vga\.blank_v
*926 vga\.count_h\[0\]
*927 vga\.count_h\[1\]
*928 vga\.count_h\[2\]
*929 vga\.count_h\[3\]
*930 vga\.count_h\[4\]
*931 vga\.count_h\[5\]
*932 vga\.count_h\[6\]
*933 vga\.count_h\[7\]
*934 vga\.count_h\[8\]
*935 vga\.count_h\[9\]
*936 vga\.count_v\[0\]
*937 vga\.count_v\[1\]
*938 vga\.count_v\[2\]
*939 vga\.count_v\[3\]
*940 vga\.count_v\[4\]
*941 vga\.count_v\[5\]
*942 vga\.count_v\[6\]
*943 vga\.count_v\[7\]
*944 vga\.count_v\[8\]
*945 vga\.g0
*946 vga\.hs
*947 vga\.hs_out
*948 vga\.interval_counter\[0\]
*949 vga\.interval_counter\[10\]
*950 vga\.interval_counter\[11\]
*951 vga\.interval_counter\[12\]
*952 vga\.interval_counter\[13\]
*953 vga\.interval_counter\[14\]
*954 vga\.interval_counter\[15\]
*955 vga\.interval_counter\[16\]
*956 vga\.interval_counter\[17\]
*957 vga\.interval_counter\[18\]
*958 vga\.interval_counter\[19\]
*959 vga\.interval_counter\[1\]
*960 vga\.interval_counter\[20\]
*961 vga\.interval_counter\[21\]
*962 vga\.interval_counter\[22\]
*963 vga\.interval_counter\[23\]
*964 vga\.interval_counter\[24\]
*965 vga\.interval_counter\[2\]
*966 vga\.interval_counter\[3\]
*967 vga\.interval_counter\[4\]
*968 vga\.interval_counter\[5\]
*969 vga\.interval_counter\[6\]
*970 vga\.interval_counter\[7\]
*971 vga\.interval_counter\[8\]
*972 vga\.interval_counter\[9\]
*973 vga\.left_down_1d
*974 vga\.left_down_pressed
*975 vga\.left_up_1d
*976 vga\.left_up_pressed
*977 vga\.paddle_l_pos_v\[0\]
*978 vga\.paddle_l_pos_v\[1\]
*979 vga\.paddle_l_pos_v\[2\]
*980 vga\.paddle_l_pos_v\[3\]
*981 vga\.paddle_l_pos_v\[4\]
*982 vga\.paddle_l_pos_v\[5\]
*983 vga\.paddle_l_pos_v\[6\]
*984 vga\.paddle_l_pos_v\[7\]
*985 vga\.paddle_l_pos_v\[8\]
*986 vga\.paddle_r_pos_v\[0\]
*987 vga\.paddle_r_pos_v\[1\]
*988 vga\.paddle_r_pos_v\[2\]
*989 vga\.paddle_r_pos_v\[3\]
*990 vga\.paddle_r_pos_v\[4\]
*991 vga\.paddle_r_pos_v\[5\]
*992 vga\.paddle_r_pos_v\[6\]
*993 vga\.paddle_r_pos_v\[7\]
*994 vga\.paddle_r_pos_v\[8\]
*995 vga\.right_down_1d
*996 vga\.right_down_pressed
*997 vga\.right_up_1d
*998 vga\.right_up_pressed
*999 vga\.vs
*1000 vga\.vs_out
*1001 ANTENNA_1
*1002 ANTENNA_2
*1003 FILLER_0_0_109
*1004 FILLER_0_0_113
*1005 FILLER_0_0_125
*1006 FILLER_0_0_137
*1007 FILLER_0_0_141
*1008 FILLER_0_0_15
*1009 FILLER_0_0_153
*1010 FILLER_0_0_165
*1011 FILLER_0_0_169
*1012 FILLER_0_0_177
*1013 FILLER_0_0_189
*1014 FILLER_0_0_195
*1015 FILLER_0_0_197
*1016 FILLER_0_0_209
*1017 FILLER_0_0_221
*1018 FILLER_0_0_225
*1019 FILLER_0_0_239
*1020 FILLER_0_0_251
*1021 FILLER_0_0_253
*1022 FILLER_0_0_265
*1023 FILLER_0_0_27
*1024 FILLER_0_0_277
*1025 FILLER_0_0_281
*1026 FILLER_0_0_29
*1027 FILLER_0_0_293
*1028 FILLER_0_0_3
*1029 FILLER_0_0_305
*1030 FILLER_0_0_309
*1031 FILLER_0_0_321
*1032 FILLER_0_0_333
*1033 FILLER_0_0_337
*1034 FILLER_0_0_349
*1035 FILLER_0_0_41
*1036 FILLER_0_0_53
*1037 FILLER_0_0_57
*1038 FILLER_0_0_69
*1039 FILLER_0_0_81
*1040 FILLER_0_0_85
*1041 FILLER_0_0_97
*1042 FILLER_0_10_100
*1043 FILLER_0_10_122
*1044 FILLER_0_10_128
*1045 FILLER_0_10_141
*1046 FILLER_0_10_147
*1047 FILLER_0_10_15
*1048 FILLER_0_10_164
*1049 FILLER_0_10_175
*1050 FILLER_0_10_190
*1051 FILLER_0_10_202
*1052 FILLER_0_10_214
*1053 FILLER_0_10_22
*1054 FILLER_0_10_226
*1055 FILLER_0_10_232
*1056 FILLER_0_10_244
*1057 FILLER_0_10_274
*1058 FILLER_0_10_282
*1059 FILLER_0_10_293
*1060 FILLER_0_10_3
*1061 FILLER_0_10_305
*1062 FILLER_0_10_315
*1063 FILLER_0_10_32
*1064 FILLER_0_10_337
*1065 FILLER_0_10_349
*1066 FILLER_0_10_40
*1067 FILLER_0_10_56
*1068 FILLER_0_10_73
*1069 FILLER_0_10_77
*1070 FILLER_0_10_88
*1071 FILLER_0_11_105
*1072 FILLER_0_11_111
*1073 FILLER_0_11_118
*1074 FILLER_0_11_126
*1075 FILLER_0_11_140
*1076 FILLER_0_11_15
*1077 FILLER_0_11_160
*1078 FILLER_0_11_180
*1079 FILLER_0_11_192
*1080 FILLER_0_11_20
*1081 FILLER_0_11_200
*1082 FILLER_0_11_211
*1083 FILLER_0_11_238
*1084 FILLER_0_11_259
*1085 FILLER_0_11_263
*1086 FILLER_0_11_281
*1087 FILLER_0_11_3
*1088 FILLER_0_11_307
*1089 FILLER_0_11_322
*1090 FILLER_0_11_326
*1091 FILLER_0_11_335
*1092 FILLER_0_11_337
*1093 FILLER_0_11_349
*1094 FILLER_0_11_35
*1095 FILLER_0_11_47
*1096 FILLER_0_11_55
*1097 FILLER_0_11_82
*1098 FILLER_0_11_88
*1099 FILLER_0_12_106
*1100 FILLER_0_12_114
*1101 FILLER_0_12_120
*1102 FILLER_0_12_132
*1103 FILLER_0_12_152
*1104 FILLER_0_12_164
*1105 FILLER_0_12_179
*1106 FILLER_0_12_185
*1107 FILLER_0_12_20
*1108 FILLER_0_12_204
*1109 FILLER_0_12_208
*1110 FILLER_0_12_220
*1111 FILLER_0_12_232
*1112 FILLER_0_12_240
*1113 FILLER_0_12_250
*1114 FILLER_0_12_253
*1115 FILLER_0_12_273
*1116 FILLER_0_12_277
*1117 FILLER_0_12_284
*1118 FILLER_0_12_303
*1119 FILLER_0_12_307
*1120 FILLER_0_12_309
*1121 FILLER_0_12_313
*1122 FILLER_0_12_322
*1123 FILLER_0_12_334
*1124 FILLER_0_12_347
*1125 FILLER_0_12_42
*1126 FILLER_0_12_54
*1127 FILLER_0_12_66
*1128 FILLER_0_12_71
*1129 FILLER_0_12_83
*1130 FILLER_0_12_94
*1131 FILLER_0_13_11
*1132 FILLER_0_13_111
*1133 FILLER_0_13_130
*1134 FILLER_0_13_138
*1135 FILLER_0_13_162
*1136 FILLER_0_13_169
*1137 FILLER_0_13_17
*1138 FILLER_0_13_181
*1139 FILLER_0_13_195
*1140 FILLER_0_13_201
*1141 FILLER_0_13_212
*1142 FILLER_0_13_216
*1143 FILLER_0_13_260
*1144 FILLER_0_13_266
*1145 FILLER_0_13_281
*1146 FILLER_0_13_29
*1147 FILLER_0_13_3
*1148 FILLER_0_13_300
*1149 FILLER_0_13_321
*1150 FILLER_0_13_329
*1151 FILLER_0_13_335
*1152 FILLER_0_13_350
*1153 FILLER_0_13_38
*1154 FILLER_0_13_54
*1155 FILLER_0_13_57
*1156 FILLER_0_13_76
*1157 FILLER_0_13_90
*1158 FILLER_0_14_105
*1159 FILLER_0_14_120
*1160 FILLER_0_14_132
*1161 FILLER_0_14_148
*1162 FILLER_0_14_162
*1163 FILLER_0_14_181
*1164 FILLER_0_14_185
*1165 FILLER_0_14_193
*1166 FILLER_0_14_197
*1167 FILLER_0_14_204
*1168 FILLER_0_14_22
*1169 FILLER_0_14_251
*1170 FILLER_0_14_282
*1171 FILLER_0_14_298
*1172 FILLER_0_14_3
*1173 FILLER_0_14_306
*1174 FILLER_0_14_309
*1175 FILLER_0_14_317
*1176 FILLER_0_14_324
*1177 FILLER_0_14_328
*1178 FILLER_0_14_334
*1179 FILLER_0_14_345
*1180 FILLER_0_14_37
*1181 FILLER_0_14_49
*1182 FILLER_0_14_73
*1183 FILLER_0_14_81
*1184 FILLER_0_14_85
*1185 FILLER_0_14_93
*1186 FILLER_0_14_99
*1187 FILLER_0_15_102
*1188 FILLER_0_15_110
*1189 FILLER_0_15_113
*1190 FILLER_0_15_131
*1191 FILLER_0_15_139
*1192 FILLER_0_15_148
*1193 FILLER_0_15_158
*1194 FILLER_0_15_166
*1195 FILLER_0_15_174
*1196 FILLER_0_15_18
*1197 FILLER_0_15_180
*1198 FILLER_0_15_195
*1199 FILLER_0_15_203
*1200 FILLER_0_15_217
*1201 FILLER_0_15_223
*1202 FILLER_0_15_225
*1203 FILLER_0_15_238
*1204 FILLER_0_15_250
*1205 FILLER_0_15_262
*1206 FILLER_0_15_274
*1207 FILLER_0_15_281
*1208 FILLER_0_15_3
*1209 FILLER_0_15_301
*1210 FILLER_0_15_322
*1211 FILLER_0_15_333
*1212 FILLER_0_15_337
*1213 FILLER_0_15_349
*1214 FILLER_0_15_41
*1215 FILLER_0_15_57
*1216 FILLER_0_15_77
*1217 FILLER_0_15_84
*1218 FILLER_0_15_93
*1219 FILLER_0_16_100
*1220 FILLER_0_16_105
*1221 FILLER_0_16_117
*1222 FILLER_0_16_122
*1223 FILLER_0_16_13
*1224 FILLER_0_16_134
*1225 FILLER_0_16_149
*1226 FILLER_0_16_163
*1227 FILLER_0_16_169
*1228 FILLER_0_16_179
*1229 FILLER_0_16_191
*1230 FILLER_0_16_195
*1231 FILLER_0_16_210
*1232 FILLER_0_16_23
*1233 FILLER_0_16_234
*1234 FILLER_0_16_240
*1235 FILLER_0_16_250
*1236 FILLER_0_16_253
*1237 FILLER_0_16_27
*1238 FILLER_0_16_285
*1239 FILLER_0_16_29
*1240 FILLER_0_16_297
*1241 FILLER_0_16_3
*1242 FILLER_0_16_305
*1243 FILLER_0_16_314
*1244 FILLER_0_16_328
*1245 FILLER_0_16_337
*1246 FILLER_0_16_350
*1247 FILLER_0_16_44
*1248 FILLER_0_16_54
*1249 FILLER_0_16_59
*1250 FILLER_0_16_82
*1251 FILLER_0_16_85
*1252 FILLER_0_16_92
*1253 FILLER_0_17_103
*1254 FILLER_0_17_11
*1255 FILLER_0_17_113
*1256 FILLER_0_17_131
*1257 FILLER_0_17_151
*1258 FILLER_0_17_16
*1259 FILLER_0_17_162
*1260 FILLER_0_17_169
*1261 FILLER_0_17_173
*1262 FILLER_0_17_189
*1263 FILLER_0_17_202
*1264 FILLER_0_17_220
*1265 FILLER_0_17_232
*1266 FILLER_0_17_243
*1267 FILLER_0_17_259
*1268 FILLER_0_17_271
*1269 FILLER_0_17_28
*1270 FILLER_0_17_288
*1271 FILLER_0_17_3
*1272 FILLER_0_17_300
*1273 FILLER_0_17_307
*1274 FILLER_0_17_324
*1275 FILLER_0_17_346
*1276 FILLER_0_17_350
*1277 FILLER_0_17_40
*1278 FILLER_0_17_46
*1279 FILLER_0_17_53
*1280 FILLER_0_17_57
*1281 FILLER_0_17_69
*1282 FILLER_0_17_73
*1283 FILLER_0_17_84
*1284 FILLER_0_18_108
*1285 FILLER_0_18_116
*1286 FILLER_0_18_120
*1287 FILLER_0_18_132
*1288 FILLER_0_18_141
*1289 FILLER_0_18_149
*1290 FILLER_0_18_182
*1291 FILLER_0_18_194
*1292 FILLER_0_18_20
*1293 FILLER_0_18_204
*1294 FILLER_0_18_212
*1295 FILLER_0_18_232
*1296 FILLER_0_18_241
*1297 FILLER_0_18_249
*1298 FILLER_0_18_253
*1299 FILLER_0_18_270
*1300 FILLER_0_18_279
*1301 FILLER_0_18_283
*1302 FILLER_0_18_306
*1303 FILLER_0_18_331
*1304 FILLER_0_18_337
*1305 FILLER_0_18_350
*1306 FILLER_0_18_43
*1307 FILLER_0_18_57
*1308 FILLER_0_18_61
*1309 FILLER_0_18_79
*1310 FILLER_0_18_83
*1311 FILLER_0_18_85
*1312 FILLER_0_18_96
*1313 FILLER_0_19_102
*1314 FILLER_0_19_11
*1315 FILLER_0_19_110
*1316 FILLER_0_19_113
*1317 FILLER_0_19_131
*1318 FILLER_0_19_139
*1319 FILLER_0_19_153
*1320 FILLER_0_19_165
*1321 FILLER_0_19_181
*1322 FILLER_0_19_189
*1323 FILLER_0_19_197
*1324 FILLER_0_19_21
*1325 FILLER_0_19_211
*1326 FILLER_0_19_223
*1327 FILLER_0_19_225
*1328 FILLER_0_19_234
*1329 FILLER_0_19_255
*1330 FILLER_0_19_267
*1331 FILLER_0_19_27
*1332 FILLER_0_19_275
*1333 FILLER_0_19_279
*1334 FILLER_0_19_281
*1335 FILLER_0_19_293
*1336 FILLER_0_19_3
*1337 FILLER_0_19_301
*1338 FILLER_0_19_308
*1339 FILLER_0_19_320
*1340 FILLER_0_19_333
*1341 FILLER_0_19_35
*1342 FILLER_0_19_46
*1343 FILLER_0_19_55
*1344 FILLER_0_19_57
*1345 FILLER_0_19_69
*1346 FILLER_0_19_73
*1347 FILLER_0_1_105
*1348 FILLER_0_1_111
*1349 FILLER_0_1_113
*1350 FILLER_0_1_125
*1351 FILLER_0_1_137
*1352 FILLER_0_1_15
*1353 FILLER_0_1_156
*1354 FILLER_0_1_161
*1355 FILLER_0_1_167
*1356 FILLER_0_1_169
*1357 FILLER_0_1_181
*1358 FILLER_0_1_192
*1359 FILLER_0_1_200
*1360 FILLER_0_1_207
*1361 FILLER_0_1_219
*1362 FILLER_0_1_223
*1363 FILLER_0_1_225
*1364 FILLER_0_1_237
*1365 FILLER_0_1_248
*1366 FILLER_0_1_260
*1367 FILLER_0_1_27
*1368 FILLER_0_1_272
*1369 FILLER_0_1_281
*1370 FILLER_0_1_293
*1371 FILLER_0_1_3
*1372 FILLER_0_1_305
*1373 FILLER_0_1_317
*1374 FILLER_0_1_329
*1375 FILLER_0_1_335
*1376 FILLER_0_1_337
*1377 FILLER_0_1_349
*1378 FILLER_0_1_39
*1379 FILLER_0_1_51
*1380 FILLER_0_1_55
*1381 FILLER_0_1_57
*1382 FILLER_0_1_69
*1383 FILLER_0_1_81
*1384 FILLER_0_1_93
*1385 FILLER_0_20_111
*1386 FILLER_0_20_119
*1387 FILLER_0_20_138
*1388 FILLER_0_20_141
*1389 FILLER_0_20_158
*1390 FILLER_0_20_186
*1391 FILLER_0_20_193
*1392 FILLER_0_20_197
*1393 FILLER_0_20_214
*1394 FILLER_0_20_222
*1395 FILLER_0_20_231
*1396 FILLER_0_20_243
*1397 FILLER_0_20_253
*1398 FILLER_0_20_257
*1399 FILLER_0_20_267
*1400 FILLER_0_20_27
*1401 FILLER_0_20_279
*1402 FILLER_0_20_291
*1403 FILLER_0_20_297
*1404 FILLER_0_20_306
*1405 FILLER_0_20_315
*1406 FILLER_0_20_323
*1407 FILLER_0_20_350
*1408 FILLER_0_20_45
*1409 FILLER_0_20_79
*1410 FILLER_0_20_83
*1411 FILLER_0_20_85
*1412 FILLER_0_20_97
*1413 FILLER_0_21_100
*1414 FILLER_0_21_125
*1415 FILLER_0_21_133
*1416 FILLER_0_21_148
*1417 FILLER_0_21_15
*1418 FILLER_0_21_159
*1419 FILLER_0_21_167
*1420 FILLER_0_21_169
*1421 FILLER_0_21_199
*1422 FILLER_0_21_207
*1423 FILLER_0_21_223
*1424 FILLER_0_21_229
*1425 FILLER_0_21_259
*1426 FILLER_0_21_267
*1427 FILLER_0_21_27
*1428 FILLER_0_21_275
*1429 FILLER_0_21_279
*1430 FILLER_0_21_281
*1431 FILLER_0_21_293
*1432 FILLER_0_21_3
*1433 FILLER_0_21_329
*1434 FILLER_0_21_335
*1435 FILLER_0_21_345
*1436 FILLER_0_21_39
*1437 FILLER_0_21_53
*1438 FILLER_0_21_61
*1439 FILLER_0_21_69
*1440 FILLER_0_21_74
*1441 FILLER_0_21_86
*1442 FILLER_0_22_101
*1443 FILLER_0_22_120
*1444 FILLER_0_22_141
*1445 FILLER_0_22_15
*1446 FILLER_0_22_150
*1447 FILLER_0_22_154
*1448 FILLER_0_22_164
*1449 FILLER_0_22_170
*1450 FILLER_0_22_175
*1451 FILLER_0_22_187
*1452 FILLER_0_22_195
*1453 FILLER_0_22_206
*1454 FILLER_0_22_210
*1455 FILLER_0_22_215
*1456 FILLER_0_22_232
*1457 FILLER_0_22_244
*1458 FILLER_0_22_261
*1459 FILLER_0_22_27
*1460 FILLER_0_22_283
*1461 FILLER_0_22_290
*1462 FILLER_0_22_3
*1463 FILLER_0_22_302
*1464 FILLER_0_22_341
*1465 FILLER_0_22_349
*1466 FILLER_0_22_46
*1467 FILLER_0_22_53
*1468 FILLER_0_22_65
*1469 FILLER_0_22_76
*1470 FILLER_0_23_109
*1471 FILLER_0_23_113
*1472 FILLER_0_23_125
*1473 FILLER_0_23_137
*1474 FILLER_0_23_145
*1475 FILLER_0_23_155
*1476 FILLER_0_23_161
*1477 FILLER_0_23_167
*1478 FILLER_0_23_179
*1479 FILLER_0_23_183
*1480 FILLER_0_23_213
*1481 FILLER_0_23_225
*1482 FILLER_0_23_245
*1483 FILLER_0_23_25
*1484 FILLER_0_23_267
*1485 FILLER_0_23_272
*1486 FILLER_0_23_281
*1487 FILLER_0_23_298
*1488 FILLER_0_23_304
*1489 FILLER_0_23_316
*1490 FILLER_0_23_328
*1491 FILLER_0_23_33
*1492 FILLER_0_23_337
*1493 FILLER_0_23_349
*1494 FILLER_0_23_39
*1495 FILLER_0_23_47
*1496 FILLER_0_23_55
*1497 FILLER_0_23_63
*1498 FILLER_0_23_80
*1499 FILLER_0_24_109
*1500 FILLER_0_24_136
*1501 FILLER_0_24_141
*1502 FILLER_0_24_15
*1503 FILLER_0_24_151
*1504 FILLER_0_24_161
*1505 FILLER_0_24_171
*1506 FILLER_0_24_179
*1507 FILLER_0_24_191
*1508 FILLER_0_24_195
*1509 FILLER_0_24_197
*1510 FILLER_0_24_227
*1511 FILLER_0_24_251
*1512 FILLER_0_24_272
*1513 FILLER_0_24_284
*1514 FILLER_0_24_29
*1515 FILLER_0_24_292
*1516 FILLER_0_24_297
*1517 FILLER_0_24_3
*1518 FILLER_0_24_325
*1519 FILLER_0_24_33
*1520 FILLER_0_24_342
*1521 FILLER_0_24_350
*1522 FILLER_0_24_43
*1523 FILLER_0_24_59
*1524 FILLER_0_24_67
*1525 FILLER_0_24_81
*1526 FILLER_0_25_107
*1527 FILLER_0_25_113
*1528 FILLER_0_25_121
*1529 FILLER_0_25_133
*1530 FILLER_0_25_149
*1531 FILLER_0_25_161
*1532 FILLER_0_25_167
*1533 FILLER_0_25_169
*1534 FILLER_0_25_181
*1535 FILLER_0_25_19
*1536 FILLER_0_25_199
*1537 FILLER_0_25_217
*1538 FILLER_0_25_23
*1539 FILLER_0_25_241
*1540 FILLER_0_25_254
*1541 FILLER_0_25_262
*1542 FILLER_0_25_281
*1543 FILLER_0_25_301
*1544 FILLER_0_25_310
*1545 FILLER_0_25_322
*1546 FILLER_0_25_334
*1547 FILLER_0_25_345
*1548 FILLER_0_25_37
*1549 FILLER_0_25_49
*1550 FILLER_0_25_55
*1551 FILLER_0_25_57
*1552 FILLER_0_25_69
*1553 FILLER_0_25_76
*1554 FILLER_0_25_87
*1555 FILLER_0_26_116
*1556 FILLER_0_26_127
*1557 FILLER_0_26_139
*1558 FILLER_0_26_15
*1559 FILLER_0_26_158
*1560 FILLER_0_26_176
*1561 FILLER_0_26_185
*1562 FILLER_0_26_193
*1563 FILLER_0_26_202
*1564 FILLER_0_26_21
*1565 FILLER_0_26_214
*1566 FILLER_0_26_220
*1567 FILLER_0_26_251
*1568 FILLER_0_26_253
*1569 FILLER_0_26_257
*1570 FILLER_0_26_265
*1571 FILLER_0_26_27
*1572 FILLER_0_26_274
*1573 FILLER_0_26_286
*1574 FILLER_0_26_29
*1575 FILLER_0_26_292
*1576 FILLER_0_26_299
*1577 FILLER_0_26_3
*1578 FILLER_0_26_307
*1579 FILLER_0_26_315
*1580 FILLER_0_26_319
*1581 FILLER_0_26_332
*1582 FILLER_0_26_35
*1583 FILLER_0_26_51
*1584 FILLER_0_26_69
*1585 FILLER_0_26_77
*1586 FILLER_0_26_91
*1587 FILLER_0_27_104
*1588 FILLER_0_27_11
*1589 FILLER_0_27_113
*1590 FILLER_0_27_125
*1591 FILLER_0_27_139
*1592 FILLER_0_27_147
*1593 FILLER_0_27_164
*1594 FILLER_0_27_169
*1595 FILLER_0_27_178
*1596 FILLER_0_27_207
*1597 FILLER_0_27_218
*1598 FILLER_0_27_225
*1599 FILLER_0_27_234
*1600 FILLER_0_27_246
*1601 FILLER_0_27_257
*1602 FILLER_0_27_264
*1603 FILLER_0_27_272
*1604 FILLER_0_27_279
*1605 FILLER_0_27_28
*1606 FILLER_0_27_286
*1607 FILLER_0_27_3
*1608 FILLER_0_27_303
*1609 FILLER_0_27_315
*1610 FILLER_0_27_319
*1611 FILLER_0_27_327
*1612 FILLER_0_27_331
*1613 FILLER_0_27_335
*1614 FILLER_0_27_337
*1615 FILLER_0_27_349
*1616 FILLER_0_27_52
*1617 FILLER_0_27_57
*1618 FILLER_0_27_63
*1619 FILLER_0_27_80
*1620 FILLER_0_27_92
*1621 FILLER_0_28_105
*1622 FILLER_0_28_123
*1623 FILLER_0_28_135
*1624 FILLER_0_28_139
*1625 FILLER_0_28_14
*1626 FILLER_0_28_141
*1627 FILLER_0_28_154
*1628 FILLER_0_28_166
*1629 FILLER_0_28_181
*1630 FILLER_0_28_193
*1631 FILLER_0_28_207
*1632 FILLER_0_28_227
*1633 FILLER_0_28_245
*1634 FILLER_0_28_25
*1635 FILLER_0_28_251
*1636 FILLER_0_28_269
*1637 FILLER_0_28_281
*1638 FILLER_0_28_287
*1639 FILLER_0_28_29
*1640 FILLER_0_28_297
*1641 FILLER_0_28_3
*1642 FILLER_0_28_305
*1643 FILLER_0_28_327
*1644 FILLER_0_28_347
*1645 FILLER_0_28_41
*1646 FILLER_0_28_57
*1647 FILLER_0_28_66
*1648 FILLER_0_28_7
*1649 FILLER_0_28_78
*1650 FILLER_0_28_90
*1651 FILLER_0_28_98
*1652 FILLER_0_29_101
*1653 FILLER_0_29_109
*1654 FILLER_0_29_11
*1655 FILLER_0_29_113
*1656 FILLER_0_29_128
*1657 FILLER_0_29_132
*1658 FILLER_0_29_138
*1659 FILLER_0_29_146
*1660 FILLER_0_29_158
*1661 FILLER_0_29_166
*1662 FILLER_0_29_179
*1663 FILLER_0_29_187
*1664 FILLER_0_29_19
*1665 FILLER_0_29_193
*1666 FILLER_0_29_201
*1667 FILLER_0_29_205
*1668 FILLER_0_29_219
*1669 FILLER_0_29_223
*1670 FILLER_0_29_225
*1671 FILLER_0_29_231
*1672 FILLER_0_29_237
*1673 FILLER_0_29_250
*1674 FILLER_0_29_257
*1675 FILLER_0_29_265
*1676 FILLER_0_29_28
*1677 FILLER_0_29_281
*1678 FILLER_0_29_289
*1679 FILLER_0_29_3
*1680 FILLER_0_29_301
*1681 FILLER_0_29_308
*1682 FILLER_0_29_312
*1683 FILLER_0_29_325
*1684 FILLER_0_29_332
*1685 FILLER_0_29_337
*1686 FILLER_0_29_349
*1687 FILLER_0_29_36
*1688 FILLER_0_29_53
*1689 FILLER_0_29_57
*1690 FILLER_0_29_74
*1691 FILLER_0_29_93
*1692 FILLER_0_2_109
*1693 FILLER_0_2_121
*1694 FILLER_0_2_125
*1695 FILLER_0_2_138
*1696 FILLER_0_2_146
*1697 FILLER_0_2_15
*1698 FILLER_0_2_154
*1699 FILLER_0_2_167
*1700 FILLER_0_2_187
*1701 FILLER_0_2_195
*1702 FILLER_0_2_197
*1703 FILLER_0_2_212
*1704 FILLER_0_2_218
*1705 FILLER_0_2_228
*1706 FILLER_0_2_232
*1707 FILLER_0_2_248
*1708 FILLER_0_2_253
*1709 FILLER_0_2_27
*1710 FILLER_0_2_271
*1711 FILLER_0_2_282
*1712 FILLER_0_2_29
*1713 FILLER_0_2_290
*1714 FILLER_0_2_297
*1715 FILLER_0_2_3
*1716 FILLER_0_2_305
*1717 FILLER_0_2_309
*1718 FILLER_0_2_321
*1719 FILLER_0_2_333
*1720 FILLER_0_2_345
*1721 FILLER_0_2_41
*1722 FILLER_0_2_53
*1723 FILLER_0_2_65
*1724 FILLER_0_2_77
*1725 FILLER_0_2_83
*1726 FILLER_0_2_85
*1727 FILLER_0_2_97
*1728 FILLER_0_30_101
*1729 FILLER_0_30_107
*1730 FILLER_0_30_113
*1731 FILLER_0_30_125
*1732 FILLER_0_30_139
*1733 FILLER_0_30_141
*1734 FILLER_0_30_147
*1735 FILLER_0_30_153
*1736 FILLER_0_30_165
*1737 FILLER_0_30_177
*1738 FILLER_0_30_18
*1739 FILLER_0_30_184
*1740 FILLER_0_30_191
*1741 FILLER_0_30_195
*1742 FILLER_0_30_229
*1743 FILLER_0_30_244
*1744 FILLER_0_30_253
*1745 FILLER_0_30_26
*1746 FILLER_0_30_274
*1747 FILLER_0_30_282
*1748 FILLER_0_30_29
*1749 FILLER_0_30_3
*1750 FILLER_0_30_307
*1751 FILLER_0_30_309