*SPEF "ieee 1481-1999"
*DESIGN "tt_um_tomkeddie_a"
*DATE "11:11:11 Fri 11 11, 1111"
*VENDOR "OpenRCX"
*PROGRAM "Parallel Extraction"
*VERSION "1.0"
*DESIGN_FLOW "NAME_SCOPE LOCAL" "PIN_CAP NONE"
*DIVIDER /
*DELIMITER :
*BUS_DELIMITER []
*T_UNIT 1 NS
*C_UNIT 1 PF
*R_UNIT 1 OHM
*L_UNIT 1 HENRY

*NAME_MAP
*3 clk
*4 ena
*5 rst_n
*6 ui_in[0]
*7 ui_in[1]
*8 ui_in[2]
*9 ui_in[3]
*10 ui_in[4]
*11 ui_in[5]
*12 ui_in[6]
*13 ui_in[7]
*14 uio_in[0]
*15 uio_in[1]
*16 uio_in[2]
*17 uio_in[3]
*18 uio_in[4]
*19 uio_in[5]
*20 uio_in[6]
*21 uio_in[7]
*22 net12
*23 net13
*24 net14
*25 net15
*26 net16
*27 net17
*28 net18
*29 net19
*30 net2
*31 net3
*32 net4
*33 net5
*34 uio_out[4]
*35 uio_out[5]
*36 net6
*37 net7
*38 net8
*39 net9
*40 net10
*41 net11
*42 uo_out[4]
*43 uo_out[5]
*44 uo_out[6]
*45 uo_out[7]
*46 _000_
*47 _001_
*48 _002_
*49 _003_
*50 _004_
*51 _005_
*52 _006_
*53 _007_
*54 _008_
*55 _009_
*56 _010_
*57 _011_
*58 _012_
*59 _013_
*60 _014_
*61 _015_
*62 _016_
*63 _017_
*64 _018_
*65 _019_
*66 _020_
*67 _021_
*68 _022_
*69 _023_
*70 _024_
*71 _025_
*72 _026_
*73 _027_
*74 _028_
*75 _029_
*76 _030_
*77 _031_
*78 _032_
*79 _033_
*80 _034_
*81 _035_
*82 _036_
*83 _037_
*84 _038_
*85 _039_
*86 _040_
*87 _041_
*88 _042_
*89 _043_
*90 _044_
*91 _045_
*92 _046_
*93 _047_
*94 _048_
*95 _049_
*96 _050_
*97 _051_
*98 _052_
*99 _053_
*100 _054_
*101 _055_
*102 _056_
*103 _057_
*104 _058_
*105 _059_
*106 _060_
*107 _061_
*108 _062_
*109 _063_
*110 _064_
*111 _065_
*112 _066_
*113 _067_
*114 _068_
*115 _069_
*116 _070_
*117 _071_
*118 _072_
*119 _073_
*120 _074_
*121 _075_
*122 _076_
*123 _077_
*124 _078_
*125 _079_
*126 _080_
*127 _081_
*128 _082_
*129 _083_
*130 _084_
*131 _085_
*132 _086_
*133 _087_
*134 _088_
*135 _089_
*136 _090_
*137 _091_
*138 _092_
*139 _093_
*140 _094_
*141 _095_
*142 clknet_0_clk
*143 clknet_2_0__leaf_clk
*144 clknet_2_1__leaf_clk
*145 clknet_2_2__leaf_clk
*146 clknet_2_3__leaf_clk
*147 net1
*148 net20
*149 net21
*150 net22
*151 net23
*152 net24
*153 net25
*154 net26
*155 net27
*156 net28
*157 net29
*158 net30
*159 net31
*160 net32
*161 net33
*162 net34
*163 net35
*164 net36
*165 net37
*166 net38
*167 net39
*168 net40
*169 net41
*170 net42
*171 net43
*172 net44
*173 vga\.b0
*174 vga\.blank_h
*175 vga\.blank_v
*176 vga\.count_h\[0\]
*177 vga\.count_h\[1\]
*178 vga\.count_h\[2\]
*179 vga\.count_h\[3\]
*180 vga\.count_h\[4\]
*181 vga\.count_h\[5\]
*182 vga\.count_h\[6\]
*183 vga\.count_h\[7\]
*184 vga\.count_h\[8\]
*185 vga\.count_h\[9\]
*186 vga\.count_v\[0\]
*187 vga\.count_v\[10\]
*188 vga\.count_v\[11\]
*189 vga\.count_v\[12\]
*190 vga\.count_v\[13\]
*191 vga\.count_v\[14\]
*192 vga\.count_v\[1\]
*193 vga\.count_v\[2\]
*194 vga\.count_v\[3\]
*195 vga\.count_v\[4\]
*196 vga\.count_v\[5\]
*197 vga\.count_v\[6\]
*198 vga\.count_v\[7\]
*199 vga\.count_v\[8\]
*200 vga\.count_v\[9\]
*201 vga\.hs
*202 vga\.hs_out
*203 vga\.vs
*204 vga\.vs_out
*205 FILLER_0_0_109
*206 FILLER_0_0_113
*207 FILLER_0_0_125
*208 FILLER_0_0_137
*209 FILLER_0_0_141
*210 FILLER_0_0_15
*211 FILLER_0_0_153
*212 FILLER_0_0_165
*213 FILLER_0_0_169
*214 FILLER_0_0_181
*215 FILLER_0_0_193
*216 FILLER_0_0_197
*217 FILLER_0_0_209
*218 FILLER_0_0_221
*219 FILLER_0_0_225
*220 FILLER_0_0_237
*221 FILLER_0_0_249
*222 FILLER_0_0_253
*223 FILLER_0_0_265
*224 FILLER_0_0_27
*225 FILLER_0_0_277
*226 FILLER_0_0_281
*227 FILLER_0_0_29
*228 FILLER_0_0_293
*229 FILLER_0_0_3
*230 FILLER_0_0_305
*231 FILLER_0_0_309
*232 FILLER_0_0_321
*233 FILLER_0_0_333
*234 FILLER_0_0_337
*235 FILLER_0_0_349
*236 FILLER_0_0_41
*237 FILLER_0_0_53
*238 FILLER_0_0_57
*239 FILLER_0_0_69
*240 FILLER_0_0_81
*241 FILLER_0_0_85
*242 FILLER_0_0_97
*243 FILLER_0_10_109
*244 FILLER_0_10_121
*245 FILLER_0_10_133
*246 FILLER_0_10_139
*247 FILLER_0_10_141
*248 FILLER_0_10_15
*249 FILLER_0_10_153
*250 FILLER_0_10_165
*251 FILLER_0_10_177
*252 FILLER_0_10_189
*253 FILLER_0_10_195
*254 FILLER_0_10_197
*255 FILLER_0_10_209
*256 FILLER_0_10_221
*257 FILLER_0_10_233
*258 FILLER_0_10_245
*259 FILLER_0_10_251
*260 FILLER_0_10_253
*261 FILLER_0_10_265
*262 FILLER_0_10_27
*263 FILLER_0_10_277
*264 FILLER_0_10_289
*265 FILLER_0_10_29
*266 FILLER_0_10_3
*267 FILLER_0_10_301
*268 FILLER_0_10_307
*269 FILLER_0_10_309
*270 FILLER_0_10_321
*271 FILLER_0_10_333
*272 FILLER_0_10_345
*273 FILLER_0_10_41
*274 FILLER_0_10_53
*275 FILLER_0_10_65
*276 FILLER_0_10_77
*277 FILLER_0_10_83
*278 FILLER_0_10_85
*279 FILLER_0_10_97
*280 FILLER_0_11_105
*281 FILLER_0_11_111
*282 FILLER_0_11_113
*283 FILLER_0_11_125
*284 FILLER_0_11_137
*285 FILLER_0_11_149
*286 FILLER_0_11_15
*287 FILLER_0_11_161
*288 FILLER_0_11_167
*289 FILLER_0_11_169
*290 FILLER_0_11_181
*291 FILLER_0_11_193
*292 FILLER_0_11_205
*293 FILLER_0_11_217
*294 FILLER_0_11_223
*295 FILLER_0_11_225
*296 FILLER_0_11_237
*297 FILLER_0_11_249
*298 FILLER_0_11_261
*299 FILLER_0_11_27
*300 FILLER_0_11_273
*301 FILLER_0_11_279
*302 FILLER_0_11_281
*303 FILLER_0_11_293
*304 FILLER_0_11_3
*305 FILLER_0_11_305
*306 FILLER_0_11_317
*307 FILLER_0_11_329
*308 FILLER_0_11_335
*309 FILLER_0_11_337
*310 FILLER_0_11_349
*311 FILLER_0_11_39
*312 FILLER_0_11_51
*313 FILLER_0_11_55
*314 FILLER_0_11_57
*315 FILLER_0_11_69
*316 FILLER_0_11_81
*317 FILLER_0_11_93
*318 FILLER_0_12_109
*319 FILLER_0_12_121
*320 FILLER_0_12_133
*321 FILLER_0_12_139
*322 FILLER_0_12_141
*323 FILLER_0_12_15
*324 FILLER_0_12_153
*325 FILLER_0_12_165
*326 FILLER_0_12_177
*327 FILLER_0_12_189
*328 FILLER_0_12_195
*329 FILLER_0_12_197
*330 FILLER_0_12_209
*331 FILLER_0_12_221
*332 FILLER_0_12_233
*333 FILLER_0_12_245
*334 FILLER_0_12_251
*335 FILLER_0_12_253
*336 FILLER_0_12_265
*337 FILLER_0_12_27
*338 FILLER_0_12_277
*339 FILLER_0_12_289
*340 FILLER_0_12_29
*341 FILLER_0_12_3
*342 FILLER_0_12_301
*343 FILLER_0_12_307
*344 FILLER_0_12_309
*345 FILLER_0_12_321
*346 FILLER_0_12_333
*347 FILLER_0_12_345
*348 FILLER_0_12_41
*349 FILLER_0_12_53
*350 FILLER_0_12_65
*351 FILLER_0_12_77
*352 FILLER_0_12_83
*353 FILLER_0_12_85
*354 FILLER_0_12_97
*355 FILLER_0_13_105
*356 FILLER_0_13_111
*357 FILLER_0_13_113
*358 FILLER_0_13_125
*359 FILLER_0_13_137
*360 FILLER_0_13_149
*361 FILLER_0_13_15
*362 FILLER_0_13_161
*363 FILLER_0_13_167
*364 FILLER_0_13_169
*365 FILLER_0_13_181
*366 FILLER_0_13_193
*367 FILLER_0_13_205
*368 FILLER_0_13_217
*369 FILLER_0_13_223
*370 FILLER_0_13_225
*371 FILLER_0_13_237
*372 FILLER_0_13_249
*373 FILLER_0_13_261
*374 FILLER_0_13_27
*375 FILLER_0_13_273
*376 FILLER_0_13_279
*377 FILLER_0_13_281
*378 FILLER_0_13_293
*379 FILLER_0_13_3
*380 FILLER_0_13_305
*381 FILLER_0_13_317
*382 FILLER_0_13_329
*383 FILLER_0_13_335
*384 FILLER_0_13_337
*385 FILLER_0_13_349
*386 FILLER_0_13_39
*387 FILLER_0_13_51
*388 FILLER_0_13_55
*389 FILLER_0_13_57
*390 FILLER_0_13_69
*391 FILLER_0_13_81
*392 FILLER_0_13_93
*393 FILLER_0_14_109
*394 FILLER_0_14_121
*395 FILLER_0_14_133
*396 FILLER_0_14_139
*397 FILLER_0_14_141
*398 FILLER_0_14_15
*399 FILLER_0_14_153
*400 FILLER_0_14_165
*401 FILLER_0_14_177
*402 FILLER_0_14_189
*403 FILLER_0_14_195
*404 FILLER_0_14_197
*405 FILLER_0_14_209
*406 FILLER_0_14_221
*407 FILLER_0_14_233
*408 FILLER_0_14_245
*409 FILLER_0_14_251
*410 FILLER_0_14_253
*411 FILLER_0_14_265
*412 FILLER_0_14_27
*413 FILLER_0_14_277
*414 FILLER_0_14_289
*415 FILLER_0_14_29
*416 FILLER_0_14_3
*417 FILLER_0_14_301
*418 FILLER_0_14_307
*419 FILLER_0_14_309
*420 FILLER_0_14_321
*421 FILLER_0_14_333
*422 FILLER_0_14_345
*423 FILLER_0_14_41
*424 FILLER_0_14_53
*425 FILLER_0_14_65
*426 FILLER_0_14_77
*427 FILLER_0_14_83
*428 FILLER_0_14_85
*429 FILLER_0_14_97
*430 FILLER_0_15_105
*431 FILLER_0_15_111
*432 FILLER_0_15_113
*433 FILLER_0_15_125
*434 FILLER_0_15_137
*435 FILLER_0_15_149
*436 FILLER_0_15_15
*437 FILLER_0_15_161
*438 FILLER_0_15_167
*439 FILLER_0_15_169
*440 FILLER_0_15_181
*441 FILLER_0_15_193
*442 FILLER_0_15_205
*443 FILLER_0_15_217
*444 FILLER_0_15_223
*445 FILLER_0_15_225
*446 FILLER_0_15_237
*447 FILLER_0_15_249
*448 FILLER_0_15_261
*449 FILLER_0_15_27
*450 FILLER_0_15_273
*451 FILLER_0_15_279
*452 FILLER_0_15_281
*453 FILLER_0_15_293
*454 FILLER_0_15_3
*455 FILLER_0_15_305
*456 FILLER_0_15_317
*457 FILLER_0_15_329
*458 FILLER_0_15_335
*459 FILLER_0_15_337
*460 FILLER_0_15_349
*461 FILLER_0_15_39
*462 FILLER_0_15_51
*463 FILLER_0_15_55
*464 FILLER_0_15_57
*465 FILLER_0_15_69
*466 FILLER_0_15_81
*467 FILLER_0_15_93
*468 FILLER_0_16_109
*469 FILLER_0_16_121
*470 FILLER_0_16_133
*471 FILLER_0_16_139
*472 FILLER_0_16_141
*473 FILLER_0_16_15
*474 FILLER_0_16_153
*475 FILLER_0_16_165
*476 FILLER_0_16_177
*477 FILLER_0_16_189
*478 FILLER_0_16_195
*479 FILLER_0_16_197
*480 FILLER_0_16_209
*481 FILLER_0_16_221
*482 FILLER_0_16_233
*483 FILLER_0_16_245
*484 FILLER_0_16_251
*485 FILLER_0_16_253
*486 FILLER_0_16_265
*487 FILLER_0_16_27
*488 FILLER_0_16_277
*489 FILLER_0_16_289
*490 FILLER_0_16_29
*491 FILLER_0_16_3
*492 FILLER_0_16_301
*493 FILLER_0_16_307
*494 FILLER_0_16_309
*495 FILLER_0_16_321
*496 FILLER_0_16_333
*497 FILLER_0_16_345
*498 FILLER_0_16_41
*499 FILLER_0_16_53
*500 FILLER_0_16_65
*501 FILLER_0_16_77
*502 FILLER_0_16_83
*503 FILLER_0_16_85
*504 FILLER_0_16_97
*505 FILLER_0_17_105
*506 FILLER_0_17_111
*507 FILLER_0_17_113
*508 FILLER_0_17_125
*509 FILLER_0_17_137
*510 FILLER_0_17_149
*511 FILLER_0_17_15
*512 FILLER_0_17_161
*513 FILLER_0_17_167
*514 FILLER_0_17_169
*515 FILLER_0_17_181
*516 FILLER_0_17_193
*517 FILLER_0_17_205
*518 FILLER_0_17_217
*519 FILLER_0_17_223
*520 FILLER_0_17_225
*521 FILLER_0_17_237
*522 FILLER_0_17_249
*523 FILLER_0_17_261
*524 FILLER_0_17_27
*525 FILLER_0_17_273
*526 FILLER_0_17_279
*527 FILLER_0_17_281
*528 FILLER_0_17_293
*529 FILLER_0_17_3
*530 FILLER_0_17_305
*531 FILLER_0_17_317
*532 FILLER_0_17_329
*533 FILLER_0_17_335
*534 FILLER_0_17_337
*535 FILLER_0_17_349
*536 FILLER_0_17_39
*537 FILLER_0_17_51
*538 FILLER_0_17_55
*539 FILLER_0_17_57
*540 FILLER_0_17_69
*541 FILLER_0_17_81
*542 FILLER_0_17_93
*543 FILLER_0_18_109
*544 FILLER_0_18_121
*545 FILLER_0_18_133
*546 FILLER_0_18_139
*547 FILLER_0_18_141
*548 FILLER_0_18_15
*549 FILLER_0_18_153
*550 FILLER_0_18_165
*551 FILLER_0_18_177
*552 FILLER_0_18_189
*553 FILLER_0_18_195
*554 FILLER_0_18_197
*555 FILLER_0_18_209
*556 FILLER_0_18_221
*557 FILLER_0_18_233
*558 FILLER_0_18_245
*559 FILLER_0_18_251
*560 FILLER_0_18_253
*561 FILLER_0_18_265
*562 FILLER_0_18_27
*563 FILLER_0_18_277
*564 FILLER_0_18_289
*565 FILLER_0_18_29
*566 FILLER_0_18_3
*567 FILLER_0_18_301
*568 FILLER_0_18_307
*569 FILLER_0_18_309
*570 FILLER_0_18_321
*571 FILLER_0_18_333
*572 FILLER_0_18_345
*573 FILLER_0_18_41
*574 FILLER_0_18_53
*575 FILLER_0_18_65
*576 FILLER_0_18_77
*577 FILLER_0_18_83
*578 FILLER_0_18_85
*579 FILLER_0_18_97
*580 FILLER_0_19_105
*581 FILLER_0_19_111
*582 FILLER_0_19_113
*583 FILLER_0_19_125
*584 FILLER_0_19_137
*585 FILLER_0_19_149
*586 FILLER_0_19_15
*587 FILLER_0_19_161
*588 FILLER_0_19_167
*589 FILLER_0_19_169
*590 FILLER_0_19_181
*591 FILLER_0_19_193
*592 FILLER_0_19_205
*593 FILLER_0_19_217
*594 FILLER_0_19_223
*595 FILLER_0_19_225
*596 FILLER_0_19_237
*597 FILLER_0_19_249
*598 FILLER_0_19_261
*599 FILLER_0_19_27
*600 FILLER_0_19_273
*601 FILLER_0_19_279
*602 FILLER_0_19_281
*603 FILLER_0_19_293
*604 FILLER_0_19_3
*605 FILLER_0_19_305
*606 FILLER_0_19_317
*607 FILLER_0_19_329
*608 FILLER_0_19_335
*609 FILLER_0_19_337
*610 FILLER_0_19_349
*611 FILLER_0_19_39
*612 FILLER_0_19_51
*613 FILLER_0_19_55
*614 FILLER_0_19_57
*615 FILLER_0_19_69
*616 FILLER_0_19_81
*617 FILLER_0_19_93
*618 FILLER_0_1_105
*619 FILLER_0_1_111
*620 FILLER_0_1_113
*621 FILLER_0_1_125
*622 FILLER_0_1_137
*623 FILLER_0_1_149
*624 FILLER_0_1_15
*625 FILLER_0_1_161
*626 FILLER_0_1_167
*627 FILLER_0_1_169
*628 FILLER_0_1_181
*629 FILLER_0_1_193
*630 FILLER_0_1_205
*631 FILLER_0_1_217
*632 FILLER_0_1_223
*633 FILLER_0_1_225
*634 FILLER_0_1_237
*635 FILLER_0_1_249
*636 FILLER_0_1_261
*637 FILLER_0_1_27
*638 FILLER_0_1_273
*639 FILLER_0_1_279
*640 FILLER_0_1_281
*641 FILLER_0_1_293
*642 FILLER_0_1_3
*643 FILLER_0_1_305
*644 FILLER_0_1_317
*645 FILLER_0_1_329
*646 FILLER_0_1_335
*647 FILLER_0_1_337
*648 FILLER_0_1_349
*649 FILLER_0_1_39
*650 FILLER_0_1_51
*651 FILLER_0_1_55
*652 FILLER_0_1_57
*653 FILLER_0_1_69
*654 FILLER_0_1_81
*655 FILLER_0_1_93
*656 FILLER_0_20_109
*657 FILLER_0_20_121
*658 FILLER_0_20_133
*659 FILLER_0_20_139
*660 FILLER_0_20_141
*661 FILLER_0_20_15
*662 FILLER_0_20_153
*663 FILLER_0_20_165
*664 FILLER_0_20_177
*665 FILLER_0_20_189
*666 FILLER_0_20_195
*667 FILLER_0_20_197
*668 FILLER_0_20_209
*669 FILLER_0_20_221
*670 FILLER_0_20_233
*671 FILLER_0_20_245
*672 FILLER_0_20_251
*673 FILLER_0_20_253
*674 FILLER_0_20_265
*675 FILLER_0_20_27
*676 FILLER_0_20_277
*677 FILLER_0_20_289
*678 FILLER_0_20_29
*679 FILLER_0_20_3
*680 FILLER_0_20_301
*681 FILLER_0_20_307
*682 FILLER_0_20_309
*683 FILLER_0_20_321
*684 FILLER_0_20_333
*685 FILLER_0_20_345
*686 FILLER_0_20_41
*687 FILLER_0_20_53
*688 FILLER_0_20_65
*689 FILLER_0_20_77
*690 FILLER_0_20_83
*691 FILLER_0_20_85
*692 FILLER_0_20_97
*693 FILLER_0_21_105
*694 FILLER_0_21_111
*695 FILLER_0_21_113
*696 FILLER_0_21_125
*697 FILLER_0_21_137
*698 FILLER_0_21_149
*699 FILLER_0_21_15
*700 FILLER_0_21_161
*701 FILLER_0_21_167
*702 FILLER_0_21_169
*703 FILLER_0_21_181
*704 FILLER_0_21_193
*705 FILLER_0_21_205
*706 FILLER_0_21_217
*707 FILLER_0_21_223
*708 FILLER_0_21_225
*709 FILLER_0_21_237
*710 FILLER_0_21_249
*711 FILLER_0_21_261
*712 FILLER_0_21_27
*713 FILLER_0_21_273
*714 FILLER_0_21_279
*715 FILLER_0_21_281
*716 FILLER_0_21_293
*717 FILLER_0_21_3
*718 FILLER_0_21_305
*719 FILLER_0_21_317
*720 FILLER_0_21_329
*721 FILLER_0_21_335
*722 FILLER_0_21_337
*723 FILLER_0_21_349
*724 FILLER_0_21_39
*725 FILLER_0_21_51
*726 FILLER_0_21_55
*727 FILLER_0_21_57
*728 FILLER_0_21_69
*729 FILLER_0_21_81
*730 FILLER_0_21_93
*731 FILLER_0_22_109
*732 FILLER_0_22_121
*733 FILLER_0_22_133
*734 FILLER_0_22_139
*735 FILLER_0_22_141
*736 FILLER_0_22_15
*737 FILLER_0_22_153
*738 FILLER_0_22_165
*739 FILLER_0_22_177
*740 FILLER_0_22_189
*741 FILLER_0_22_195
*742 FILLER_0_22_197
*743 FILLER_0_22_209
*744 FILLER_0_22_221
*745 FILLER_0_22_233
*746 FILLER_0_22_245
*747 FILLER_0_22_251
*748 FILLER_0_22_253
*749 FILLER_0_22_265
*750 FILLER_0_22_27
*751 FILLER_0_22_277
*752 FILLER_0_22_289
*753 FILLER_0_22_29
*754 FILLER_0_22_3
*755 FILLER_0_22_301
*756 FILLER_0_22_307
*757 FILLER_0_22_309
*758 FILLER_0_22_321
*759 FILLER_0_22_333
*760 FILLER_0_22_345
*761 FILLER_0_22_41
*762 FILLER_0_22_53
*763 FILLER_0_22_65
*764 FILLER_0_22_77
*765 FILLER_0_22_83
*766 FILLER_0_22_85
*767 FILLER_0_22_97
*768 FILLER_0_23_105
*769 FILLER_0_23_111
*770 FILLER_0_23_113
*771 FILLER_0_23_125
*772 FILLER_0_23_137
*773 FILLER_0_23_149
*774 FILLER_0_23_15
*775 FILLER_0_23_161
*776 FILLER_0_23_167
*777 FILLER_0_23_169
*778 FILLER_0_23_181
*779 FILLER_0_23_193
*780 FILLER_0_23_205
*781 FILLER_0_23_217
*782 FILLER_0_23_223
*783 FILLER_0_23_225
*784 FILLER_0_23_237
*785 FILLER_0_23_249
*786 FILLER_0_23_261
*787 FILLER_0_23_27
*788 FILLER_0_23_273
*789 FILLER_0_23_279
*790 FILLER_0_23_281
*791 FILLER_0_23_293
*792 FILLER_0_23_3
*793 FILLER_0_23_305
*794 FILLER_0_23_317
*795 FILLER_0_23_329
*796 FILLER_0_23_335
*797 FILLER_0_23_337
*798 FILLER_0_23_349
*799 FILLER_0_23_39
*800 FILLER_0_23_51
*801 FILLER_0_23_55
*802 FILLER_0_23_57
*803 FILLER_0_23_69
*804 FILLER_0_23_81
*805 FILLER_0_23_93
*806 FILLER_0_24_109
*807 FILLER_0_24_121
*808 FILLER_0_24_133
*809 FILLER_0_24_139
*810 FILLER_0_24_141
*811 FILLER_0_24_15
*812 FILLER_0_24_153
*813 FILLER_0_24_165
*814 FILLER_0_24_191
*815 FILLER_0_24_195
*816 FILLER_0_24_197
*817 FILLER_0_24_209
*818 FILLER_0_24_215
*819 FILLER_0_24_222
*820 FILLER_0_24_234
*821 FILLER_0_24_246
*822 FILLER_0_24_253
*823 FILLER_0_24_259
*824 FILLER_0_24_27
*825 FILLER_0_24_280
*826 FILLER_0_24_29
*827 FILLER_0_24_292
*828 FILLER_0_24_3
*829 FILLER_0_24_304
*830 FILLER_0_24_309
*831 FILLER_0_24_321
*832 FILLER_0_24_333
*833 FILLER_0_24_345
*834 FILLER_0_24_41
*835 FILLER_0_24_53
*836 FILLER_0_24_65
*837 FILLER_0_24_77
*838 FILLER_0_24_83
*839 FILLER_0_24_85
*840 FILLER_0_24_97
*841 FILLER_0_25_105
*842 FILLER_0_25_111
*843 FILLER_0_25_113
*844 FILLER_0_25_125
*845 FILLER_0_25_137
*846 FILLER_0_25_149
*847 FILLER_0_25_15
*848 FILLER_0_25_161
*849 FILLER_0_25_167
*850 FILLER_0_25_169
*851 FILLER_0_25_181
*852 FILLER_0_25_193
*853 FILLER_0_25_205
*854 FILLER_0_25_220
*855 FILLER_0_25_241
*856 FILLER_0_25_253
*857 FILLER_0_25_261
*858 FILLER_0_25_27
*859 FILLER_0_25_278
*860 FILLER_0_25_281
*861 FILLER_0_25_293
*862 FILLER_0_25_3
*863 FILLER_0_25_305
*864 FILLER_0_25_317
*865 FILLER_0_25_329
*866 FILLER_0_25_335
*867 FILLER_0_25_337
*868 FILLER_0_25_349
*869 FILLER_0_25_39
*870 FILLER_0_25_51
*871 FILLER_0_25_55
*872 FILLER_0_25_57
*873 FILLER_0_25_69
*874 FILLER_0_25_81
*875 FILLER_0_25_93
*876 FILLER_0_26_109
*877 FILLER_0_26_121
*878 FILLER_0_26_133
*879 FILLER_0_26_139
*880 FILLER_0_26_141
*881 FILLER_0_26_15
*882 FILLER_0_26_153
*883 FILLER_0_26_165
*884 FILLER_0_26_177
*885 FILLER_0_26_189
*886 FILLER_0_26_195
*887 FILLER_0_26_229
*888 FILLER_0_26_247
*889 FILLER_0_26_251
*890 FILLER_0_26_253
*891 FILLER_0_26_27
*892 FILLER_0_26_280
*893 FILLER_0_26_29
*894 FILLER_0_26_292
*895 FILLER_0_26_3
*896 FILLER_0_26_304
*897 FILLER_0_26_309
*898 FILLER_0_26_321
*899 FILLER_0_26_333
*900 FILLER_0_26_345
*901 FILLER_0_26_41
*902 FILLER_0_26_53
*903 FILLER_0_26_65
*904 FILLER_0_26_77
*905 FILLER_0_26_83
*906 FILLER_0_26_85
*907 FILLER_0_26_97
*908 FILLER_0_27_105
*909 FILLER_0_27_111
*910 FILLER_0_27_113
*911 FILLER_0_27_125
*912 FILLER_0_27_137
*913 FILLER_0_27_149
*914 FILLER_0_27_15
*915 FILLER_0_27_161
*916 FILLER_0_27_167
*917 FILLER_0_27_169
*918 FILLER_0_27_181
*919 FILLER_0_27_193
*920 FILLER_0_27_221
*921 FILLER_0_27_254
*922 FILLER_0_27_27
*923 FILLER_0_27_277
*924 FILLER_0_27_281
*925 FILLER_0_27_293
*926 FILLER_0_27_3
*927 FILLER_0_27_305
*928 FILLER_0_27_317
*929 FILLER_0_27_329
*930 FILLER_0_27_335
*931 FILLER_0_27_337
*932 FILLER_0_27_349
*933 FILLER_0_27_39
*934 FILLER_0_27_51
*935 FILLER_0_27_55
*936 FILLER_0_27_57
*937 FILLER_0_27_69
*938 FILLER_0_27_81
*939 FILLER_0_27_93
*940 FILLER_0_28_109
*941 FILLER_0_28_121
*942 FILLER_0_28_133
*943 FILLER_0_28_139
*944 FILLER_0_28_141
*945 FILLER_0_28_15
*946 FILLER_0_28_153
*947 FILLER_0_28_177
*948 FILLER_0_28_189
*949 FILLER_0_28_195
*950 FILLER_0_28_241
*951 FILLER_0_28_249
*952 FILLER_0_28_268
*953 FILLER_0_28_27
*954 FILLER_0_28_278
*955 FILLER_0_28_29
*956 FILLER_0_28_290
*957 FILLER_0_28_3
*958 FILLER_0_28_302
*959 FILLER_0_28_309
*960 FILLER_0_28_321
*961 FILLER_0_28_333
*962 FILLER_0_28_345
*963 FILLER_0_28_41
*964 FILLER_0_28_53
*965 FILLER_0_28_65
*966 FILLER_0_28_77
*967 FILLER_0_28_83
*968 FILLER_0_28_85
*969 FILLER_0_28_97
*970 FILLER_0_29_105
*971 FILLER_0_29_111
*972 FILLER_0_29_113
*973 FILLER_0_29_125
*974 FILLER_0_29_137
*975 FILLER_0_29_149
*976 FILLER_0_29_15
*977 FILLER_0_29_155
*978 FILLER_0_29_192
*979 FILLER_0_29_196
*980 FILLER_0_29_204
*981 FILLER_0_29_215
*982 FILLER_0_29_223
*983 FILLER_0_29_225
*984 FILLER_0_29_252
*985 FILLER_0_29_27
*986 FILLER_0_29_279
*987 FILLER_0_29_286
*988 FILLER_0_29_298
*989 FILLER_0_29_3
*990 FILLER_0_29_310
*991 FILLER_0_29_322
*992 FILLER_0_29_334
*993 FILLER_0_29_337
*994 FILLER_0_29_349
*995 FILLER_0_29_39
*996 FILLER_0_29_51
*997 FILLER_0_29_55
*998 FILLER_0_29_57
*999 FILLER_0_29_69
*1000 FILLER_0_29_81
*1001 FILLER_0_29_93
*1002 FILLER_0_2_109
*1003 FILLER_0_2_121
*1004 FILLER_0_2_133
*1005 FILLER_0_2_139
*1006 FILLER_0_2_141
*1007 FILLER_0_2_15
*1008 FILLER_0_2_153
*1009 FILLER_0_2_165
*1010 FILLER_0_2_177
*1011 FILLER_0_2_189
*1012 FILLER_0_2_195
*1013 FILLER_0_2_197
*1014 FILLER_0_2_209
*1015 FILLER_0_2_221
*1016 FILLER_0_2_233
*1017 FILLER_0_2_245
*1018 FILLER_0_2_251
*1019 FILLER_0_2_253
*1020 FILLER_0_2_265
*1021 FILLER_0_2_27
*1022 FILLER_0_2_277
*1023 FILLER_0_2_289
*1024 FILLER_0_2_29
*1025 FILLER_0_2_3
*1026 FILLER_0_2_301
*1027 FILLER_0_2_307
*1028 FILLER_0_2_309
*1029 FILLER_0_2_321
*1030 FILLER_0_2_333
*1031 FILLER_0_2_345
*1032 FILLER_0_2_41
*1033 FILLER_0_2_53
*1034 FILLER_0_2_65
*1035 FILLER_0_2_77
*1036 FILLER_0_2_83
*1037 FILLER_0_2_85
*1038 FILLER_0_2_97
*1039 FILLER_0_30_109
*1040 FILLER_0_30_121
*1041 FILLER_0_30_133
*1042 FILLER_0_30_139
*1043 FILLER_0_30_141
*1044 FILLER_0_30_15
*1045 FILLER_0_30_153
*1046 FILLER_0_30_159
*1047 FILLER_0_30_192
*1048 FILLER_0_30_197
*1049 FILLER_0_30_212
*1050 FILLER_0_30_224
*1051 FILLER_0_30_239
*1052 FILLER_0_30_251
*1053 FILLER_0_30_253
*1054 FILLER_0_30_27
*1055 FILLER_0_30_281
*1056 FILLER_0_30_29
*1057 FILLER_0_30_293
*1058 FILLER_0_30_3
*1059 FILLER_0_30_305
*1060 FILLER_0_30_309
*1061 FILLER_0_30_321
*1062 FILLER_0_30_333
*1063 FILLER_0_30_345
*1064 FILLER_0_30_41
*1065 FILLER_0_30_53
*1066 FILLER_0_30_65
*1067 FILLER_0_30_77
*1068 FILLER_0_30_83
*1069 FILLER_0_30_85
*1070 FILLER_0_30_97
*1071 FILLER_0_31_105
*1072 FILLER_0_31_111
*1073 FILLER_0_31_113
*1074 FILLER_0_31_125
*1075 FILLER_0_31_137
*1076 FILLER_0_31_149
*1077 FILLER_0_31_15
*1078 FILLER_0_31_155
*1079 FILLER_0_31_190
*1080 FILLER_0_31_198
*1081 FILLER_0_31_222
*1082 FILLER_0_31_259
*1083 FILLER_0_31_27
*1084 FILLER_0_31_287
*1085 FILLER_0_31_295
*1086 FILLER_0_31_3
*1087 FILLER_0_31_305
*1088 FILLER_0_31_317
*1089 FILLER_0_31_329
*1090 FILLER_0_31_335
*1091 FILLER_0_31_337
*1092 FILLER_0_31_349
*1093 FILLER_0_31_39
*1094 FILLER_0_31_51
*1095 FILLER_0_31_55
*1096 FILLER_0_31_57
*1097 FILLER_0_31_69
*1098 FILLER_0_31_81
*1099 FILLER_0_31_93
*1100 FILLER_0_32_109
*1101 FILLER_0_32_121
*1102 FILLER_0_32_133
*1103 FILLER_0_32_139
*1104 FILLER_0_32_141
*1105 FILLER_0_32_15
*1106 FILLER_0_32_153
*1107 FILLER_0_32_189
*1108 FILLER_0_32_195
*1109 FILLER_0_32_197
*1110 FILLER_0_32_209
*1111 FILLER_0_32_229
*1112 FILLER_0_32_251
*1113 FILLER_0_32_27
*1114 FILLER_0_32_285
*1115 FILLER_0_32_29
*1116 FILLER_0_32_3
*1117 FILLER_0_32_306
*1118 FILLER_0_32_309
*1119 FILLER_0_32_321
*1120 FILLER_0_32_333
*1121 FILLER_0_32_345
*1122 FILLER_0_32_41
*1123 FILLER_0_32_53
*1124 FILLER_0_32_65
*1125 FILLER_0_32_77
*1126 FILLER_0_32_83
*1127 FILLER_0_32_85
*1128 FILLER_0_32_97
*1129 FILLER_0_33_105
*1130 FILLER_0_33_111
*1131 FILLER_0_33_113
*1132 FILLER_0_33_125
*1133 FILLER_0_33_137
*1134 FILLER_0_33_149
*1135 FILLER_0_33_15
*1136 FILLER_0_33_220
*1137 FILLER_0_33_225
*1138 FILLER_0_33_237
*1139 FILLER_0_33_245
*1140 FILLER_0_33_256
*1141 FILLER_0_33_260
*1142 FILLER_0_33_266
*1143 FILLER_0_33_27
*1144 FILLER_0_33_278
*1145 FILLER_0_33_281
*1146 FILLER_0_33_293
*1147 FILLER_0_33_3
*1148 FILLER_0_33_315
*1149 FILLER_0_33_327
*1150 FILLER_0_33_335
*1151 FILLER_0_33_337
*1152 FILLER_0_33_349
*1153 FILLER_0_33_39
*1154 FILLER_0_33_51
*1155 FILLER_0_33_55
*1156 FILLER_0_33_57
*1157 FILLER_0_33_69
*1158 FILLER_0_33_81
*1159 FILLER_0_33_93
*1160 FILLER_0_34_109
*1161 FILLER_0_34_121
*1162 FILLER_0_34_133
*1163 FILLER_0_34_139
*1164 FILLER_0_34_144
*1165 FILLER_0_34_15
*1166 FILLER_0_34_156
*1167 FILLER_0_34_191
*1168 FILLER_0_34_195
*1169 FILLER_0_34_197
*1170 FILLER_0_34_230
*1171 FILLER_0_34_248
*1172 FILLER_0_34_253
*1173 FILLER_0_34_27
*1174 FILLER_0_34_280
*1175 FILLER_0_34_29
*1176 FILLER_0_34_292
*1177 FILLER_0_34_296
*1178 FILLER_0_34_3
*1179 FILLER_0_34_317
*1180 FILLER_0_34_329
*1181 FILLER_0_34_341
*1182 FILLER_0_34_349
*1183 FILLER_0_34_41
*1184 FILLER_0_34_53
*1185 FILLER_0_34_65
*1186 FILLER_0_34_77
*1187 FILLER_0_34_83
*1188 FILLER_0_34_85
*1189 FILLER_0_34_97
*1190 FILLER_0_35_105
*1191 FILLER_0_35_111
*1192 FILLER_0_35_113
*1193 FILLER_0_35_125
*1194 FILLER_0_35_137
*1195 FILLER_0_35_149
*1196 FILLER_0_35_15
*1197 FILLER_0_35_161
*1198 FILLER_0_35_167
*1199 FILLER_0_35_169
*1200 FILLER_0_35_181
*1201 FILLER_0_35_193
*1202 FILLER_0_35_235
*1203 FILLER_0_35_269
*1204 FILLER_0_35_27
*1205 FILLER_0_35_277
*1206 FILLER_0_35_281
*1207 FILLER_0_35_293
*1208 FILLER_0_35_3
*1209 FILLER_0_35_322
*1210 FILLER_0_35_334
*1211 FILLER_0_35_337
*1212 FILLER_0_35_349
*1213 FILLER_0_35_39
*1214 FILLER_0_35_51
*1215 FILLER_0_35_55
*1216 FILLER_0_35_57
*1217 FILLER_0_35_69
*1218 FILLER_0_35_81
*1219 FILLER_0_35_93
*1220 FILLER_0_36_109
*1221 FILLER_0_36_121
*1222 FILLER_0_36_133
*1223 FILLER_0_36_139
*1224 FILLER_0_36_141
*1225 FILLER_0_36_15
*1226 FILLER_0_36_153
*1227 FILLER_0_36_165
*1228 FILLER_0_36_184
*1229 FILLER_0_36_197
*1230 FILLER_0_36_239
*1231 FILLER_0_36_27
*1232 FILLER_0_36_29
*1233 FILLER_0_36_290
*1234 FILLER_0_36_294
*1235 FILLER_0_36_3
*1236 FILLER_0_36_333
*1237 FILLER_0_36_345
*1238 FILLER_0_36_41
*1239 FILLER_0_36_53
*1240 FILLER_0_36_65
*1241 FILLER_0_36_77
*1242 FILLER_0_36_83
*1243 FILLER_0_36_85
*1244 FILLER_0_36_97
*1245 FILLER_0_37_105
*1246 FILLER_0_37_111
*1247 FILLER_0_37_113
*1248 FILLER_0_37_125
*1249 FILLER_0_37_134
*1250 FILLER_0_37_142
*1251 FILLER_0_37_148
*1252 FILLER_0_37_15
*1253 FILLER_0_37_169
*1254 FILLER_0_37_184
*1255 FILLER_0_37_196
*1256 FILLER_0_37_204
*1257 FILLER_0_37_225
*1258 FILLER_0_37_235
*1259 FILLER_0_37_247
*1260 FILLER_0_37_251
*1261 FILLER_0_37_27
*1262 FILLER_0_37_279
*1263 FILLER_0_37_289
*1264 FILLER_0_37_293
*1265 FILLER_0_37_3
*1266 FILLER_0_37_314
*1267 FILLER_0_37_326
*1268 FILLER_0_37_334
*1269 FILLER_0_37_337
*1270 FILLER_0_37_349
*1271 FILLER_0_37_39
*1272 FILLER_0_37_51
*1273 FILLER_0_37_55
*1274 FILLER_0_37_57
*1275 FILLER_0_37_69
*1276 FILLER_0_37_81
*1277 FILLER_0_37_93
*1278 FILLER_0_38_104
*1279 FILLER_0_38_110
*1280 FILLER_0_38_116
*1281 FILLER_0_38_122
*1282 FILLER_0_38_134
*1283 FILLER_0_38_141
*1284 FILLER_0_38_146
*1285 FILLER_0_38_15
*1286 FILLER_0_38_152
*1287 FILLER_0_38_158
*1288 FILLER_0_38_166
*1289 FILLER_0_38_169
*1290 FILLER_0_38_173
*1291 FILLER_0_38_188
*1292 FILLER_0_38_194
*1293 FILLER_0_38_200
*1294 FILLER_0_38_206
*1295 FILLER_0_38_218
*1296 FILLER_0_38_231
*1297 FILLER_0_38_243
*1298 FILLER_0_38_251
*1299 FILLER_0_38_253
*1300 FILLER_0_38_257
*1301 FILLER_0_38_27
*1302 FILLER_0_38_277
*1303 FILLER_0_38_281
*1304 FILLER_0_38_29
*1305 FILLER_0_38_293
*1306 FILLER_0_38_3
*1307 FILLER_0_38_301
*1308 FILLER_0_38_307
*1309 FILLER_0_38_309
*1310 FILLER_0_38_321
*1311 FILLER_0_38_333
*1312 FILLER_0_38_337
*1313 FILLER_0_38_349
*1314 FILLER_0_38_41
*1315 FILLER_0_38_53
*1316 FILLER_0_38_57
*1317 FILLER_0_38_68
*1318 FILLER_0_38_74
*1319 FILLER_0_38_80
*1320 FILLER_0_38_88
*1321 FILLER_0_38_92
*1322 FILLER_0_38_98
*1323 FILLER_0_3_105
*1324 FILLER_0_3_111
*1325 FILLER_0_3_113
*1326 FILLER_0_3_125
*1327 FILLER_0_3_137
*1328 FILLER_0_3_149
*1329 FILLER_0_3_15
*1330 FILLER_0_3_161
*1331 FILLER_0_3_167
*1332 FILLER_0_3_169
*1333 FILLER_0_3_181
*1334 FILLER_0_3_193
*1335 FILLER_0_3_205
*1336 FILLER_0_3_217
*1337 FILLER_0_3_223
*1338 FILLER_0_3_225
*1339 FILLER_0_3_237
*1340 FILLER_0_3_249
*1341 FILLER_0_3_261
*1342 FILLER_0_3_27
*1343 FILLER_0_3_273
*1344 FILLER_0_3_279
*1345 FILLER_0_3_281
*1346 FILLER_0_3_293
*1347 FILLER_0_3_3
*1348 FILLER_0_3_305
*1349 FILLER_0_3_317
*1350 FILLER_0_3_329
*1351 FILLER_0_3_335
*1352 FILLER_0_3_337
*1353 FILLER_0_3_349
*1354 FILLER_0_3_39
*1355 FILLER_0_3_51
*1356 FILLER_0_3_55
*1357 FILLER_0_3_57
*1358 FILLER_0_3_69
*1359 FILLER_0_3_81
*1360 FILLER_0_3_93
*1361 FILLER_0_4_109
*1362 FILLER_0_4_121
*1363 FILLER_0_4_133
*1364 FILLER_0_4_139
*1365 FILLER_0_4_141
*1366 FILLER_0_4_15
*1367 FILLER_0_4_153
*1368 FILLER_0_4_165
*1369 FILLER_0_4_177
*1370 FILLER_0_4_189
*1371 FILLER_0_4_195
*1372 FILLER_0_4_197
*1373 FILLER_0_4_209
*1374 FILLER_0_4_221
*1375 FILLER_0_4_233
*1376 FILLER_0_4_245
*1377 FILLER_0_4_251
*1378 FILLER_0_4_253
*1379 FILLER_0_4_265
*1380 FILLER_0_4_27
*1381 FILLER_0_4_277
*1382 FILLER_0_4_289
*1383 FILLER_0_4_29
*1384 FILLER_0_4_3
*1385 FILLER_0_4_301
*1386 FILLER_0_4_307
*1387 FILLER_0_4_309
*1388 FILLER_0_4_321
*1389 FILLER_0_4_333
*1390 FILLER_0_4_345
*1391 FILLER_0_4_41
*1392 FILLER_0_4_53
*1393 FILLER_0_4_65
*1394 FILLER_0_4_77
*1395 FILLER_0_4_83
*1396 FILLER_0_4_85
*1397 FILLER_0_4_97
*1398 FILLER_0_5_105
*1399 FILLER_0_5_111
*1400 FILLER_0_5_113
*1401 FILLER_0_5_125
*1402 FILLER_0_5_137
*1403 FILLER_0_5_149
*1404 FILLER_0_5_15
*1405 FILLER_0_5_161
*1406 FILLER_0_5_167
*1407 FILLER_0_5_169
*1408 FILLER_0_5_181
*1409 FILLER_0_5_193
*1410 FILLER_0_5_205
*1411 FILLER_0_5_217
*1412 FILLER_0_5_223
*1413 FILLER_0_5_225
*1414 FILLER_0_5_237
*1415 FILLER_0_5_249
*1416 FILLER_0_5_261
*1417 FILLER_0_5_27
*1418 FILLER_0_5_273
*1419 FILLER_0_5_279
*1420 FILLER_0_5_281
*1421 FILLER_0_5_293
*1422 FILLER_0_5_3
*1423 FILLER_0_5_305
*1424 FILLER_0_5_317
*1425 FILLER_0_5_329
*1426 FILLER_0_5_335
*1427 FILLER_0_5_337
*1428 FILLER_0_5_349
*1429 FILLER_0_5_39
*1430 FILLER_0_5_51
*1431 FILLER_0_5_55
*1432 FILLER_0_5_57
*1433 FILLER_0_5_69
*1434 FILLER_0_5_81
*1435 FILLER_0_5_93
*1436 FILLER_0_6_109
*1437 FILLER_0_6_121
*1438 FILLER_0_6_133
*1439 FILLER_0_6_139
*1440 FILLER_0_6_141
*1441 FILLER_0_6_15
*1442 FILLER_0_6_153
*1443 FILLER_0_6_165
*1444 FILLER_0_6_177
*1445 FILLER_0_6_189
*1446 FILLER_0_6_195
*1447 FILLER_0_6_197
*1448 FILLER_0_6_209
*1449 FILLER_0_6_221
*1450 FILLER_0_6_233
*1451 FILLER_0_6_245
*1452 FILLER_0_6_251
*1453 FILLER_0_6_253
*1454 FILLER_0_6_265
*1455 FILLER_0_6_27
*1456 FILLER_0_6_277
*1457 FILLER_0_6_289
*1458 FILLER_0_6_29
*1459 FILLER_0_6_3
*1460 FILLER_0_6_301
*1461 FILLER_0_6_307
*1462 FILLER_0_6_309
*1463 FILLER_0_6_321
*1464 FILLER_0_6_333
*1465 FILLER_0_6_345
*1466 FILLER_0_6_41
*1467 FILLER_0_6_53
*1468 FILLER_0_6_65
*1469 FILLER_0_6_77
*1470 FILLER_0_6_83
*1471 FILLER_0_6_85
*1472 FILLER_0_6_97
*1473 FILLER_0_7_105
*1474 FILLER_0_7_111
*1475 FILLER_0_7_113
*1476 FILLER_0_7_125
*1477 FILLER_0_7_137
*1478 FILLER_0_7_149
*1479 FILLER_0_7_15
*1480 FILLER_0_7_161
*1481 FILLER_0_7_167
*1482 FILLER_0_7_169
*1483 FILLER_0_7_181
*1484 FILLER_0_7_193
*1485 FILLER_0_7_205
*1486 FILLER_0_7_217
*1487 FILLER_0_7_223
*1488 FILLER_0_7_225
*1489 FILLER_0_7_237
*1490 FILLER_0_7_249
*1491 FILLER_0_7_261
*1492 FILLER_0_7_27
*1493 FILLER_0_7_273
*1494 FILLER_0_7_279
*1495 FILLER_0_7_281
*1496 FILLER_0_7_293
*1497 FILLER_0_7_3
*1498 FILLER_0_7_305
*1499 FILLER_0_7_317
*1500 FILLER_0_7_329
*1501 FILLER_0_7_335
*1502 FILLER_0_7_337
*1503 FILLER_0_7_349
*1504 FILLER_0_7_39