*SPEF "ieee 1481-1999"
*DESIGN "tt_um_tomkeddie_a"
*DATE "11:11:11 Fri 11 11, 1111"
*VENDOR "OpenRCX"
*PROGRAM "Parallel Extraction"
*VERSION "1.0"
*DESIGN_FLOW "NAME_SCOPE LOCAL" "PIN_CAP NONE"
*DIVIDER /
*DELIMITER :
*BUS_DELIMITER []
*T_UNIT 1 NS
*C_UNIT 1 PF
*R_UNIT 1 OHM
*L_UNIT 1 HENRY

*NAME_MAP
*3 clk
*4 ena
*5 rst_n
*6 ui_in[0]
*7 ui_in[1]
*8 ui_in[2]
*9 ui_in[3]
*10 ui_in[4]
*11 ui_in[5]
*12 ui_in[6]
*13 ui_in[7]
*14 uio_in[0]
*15 uio_in[1]
*16 uio_in[2]
*17 uio_in[3]
*18 uio_in[4]
*19 uio_in[5]
*20 uio_in[6]
*21 uio_in[7]
*22 uio_oe[0]
*23 uio_oe[1]
*24 uio_oe[2]
*25 uio_oe[3]
*26 uio_oe[4]
*27 uio_oe[5]
*28 uio_oe[6]
*29 uio_oe[7]
*30 uio_out[0]
*31 uio_out[1]
*32 uio_out[2]
*33 uio_out[3]
*34 uio_out[4]
*35 uio_out[5]
*36 net10
*37 net11
*38 uo_out[0]
*39 uo_out[1]
*40 uo_out[2]
*41 uo_out[3]
*42 uo_out[4]
*43 uo_out[5]
*44 uo_out[6]
*45 uo_out[7]
*46 _0000_
*47 _0001_
*48 _0002_
*49 _0003_
*50 _0004_
*51 _0005_
*52 _0006_
*53 _0007_
*54 _0008_
*55 _0009_
*56 _0010_
*57 _0011_
*58 _0012_
*59 _0013_
*60 _0014_
*61 _0015_
*62 _0016_
*63 _0017_
*64 _0018_
*65 _0019_
*66 _0020_
*67 _0021_
*68 _0022_
*69 _0023_
*70 _0024_
*71 _0025_
*72 _0026_
*73 _0027_
*74 _0028_
*75 _0029_
*76 _0030_
*77 _0031_
*78 _0032_
*79 _0033_
*80 _0034_
*81 _0035_
*82 _0036_
*83 _0037_
*84 _0038_
*85 _0039_
*86 _0040_
*87 _0041_
*88 _0042_
*89 _0043_
*90 _0044_
*91 _0045_
*92 _0046_
*93 _0047_
*94 _0048_
*95 _0049_
*96 _0050_
*97 _0051_
*98 _0052_
*99 _0053_
*100 _0054_
*101 _0055_
*102 _0056_
*103 _0057_
*104 _0058_
*105 _0059_
*106 _0060_
*107 _0061_
*108 _0062_
*109 _0063_
*110 _0064_
*111 _0065_
*112 _0066_
*113 _0067_
*114 _0068_
*115 _0069_
*116 _0070_
*117 _0071_
*118 _0072_
*119 _0073_
*120 _0074_
*121 _0075_
*122 _0076_
*123 _0077_
*124 _0078_
*125 _0079_
*126 _0080_
*127 _0081_
*128 _0082_
*129 _0083_
*130 _0084_
*131 _0085_
*132 _0086_
*133 _0087_
*134 _0088_
*135 _0089_
*136 _0090_
*137 _0091_
*138 _0092_
*139 _0093_
*140 _0094_
*141 _0095_
*142 _0096_
*143 _0097_
*144 _0098_
*145 _0099_
*146 _0100_
*147 _0101_
*148 _0102_
*149 _0103_
*150 _0104_
*151 _0105_
*152 _0106_
*153 _0107_
*154 _0108_
*155 _0109_
*156 _0110_
*157 _0111_
*158 _0112_
*159 _0113_
*160 _0114_
*161 _0115_
*162 _0116_
*163 _0117_
*164 _0118_
*165 _0119_
*166 _0120_
*167 _0121_
*168 _0122_
*169 _0123_
*170 _0124_
*171 _0125_
*172 _0126_
*173 _0127_
*174 _0128_
*175 _0129_
*176 _0130_
*177 _0131_
*178 _0132_
*179 _0133_
*180 _0134_
*181 _0135_
*182 _0136_
*183 _0137_
*184 _0138_
*185 _0139_
*186 _0140_
*187 _0141_
*188 _0142_
*189 _0143_
*190 _0144_
*191 _0145_
*192 _0146_
*193 _0147_
*194 _0148_
*195 _0149_
*196 _0150_
*197 _0151_
*198 _0152_
*199 _0153_
*200 _0154_
*201 _0155_
*202 _0156_
*203 _0157_
*204 _0158_
*205 _0159_
*206 _0160_
*207 _0161_
*208 _0162_
*209 _0163_
*210 _0164_
*211 _0165_
*212 _0166_
*213 _0167_
*214 _0168_
*215 _0169_
*216 _0170_
*217 _0171_
*218 _0172_
*219 _0173_
*220 _0174_
*221 _0175_
*222 _0176_
*223 _0177_
*224 _0178_
*225 _0179_
*226 _0180_
*227 _0181_
*228 _0182_
*229 _0183_
*230 _0184_
*231 _0185_
*232 _0186_
*233 _0187_
*234 _0188_
*235 _0189_
*236 _0190_
*237 _0191_
*238 _0192_
*239 _0193_
*240 _0194_
*241 _0195_
*242 _0196_
*243 _0197_
*244 _0198_
*245 _0199_
*246 _0200_
*247 _0201_
*248 _0202_
*249 _0203_
*250 _0204_
*251 _0205_
*252 _0206_
*253 _0207_
*254 _0208_
*255 _0209_
*256 _0210_
*257 _0211_
*258 _0212_
*259 _0213_
*260 _0214_
*261 _0215_
*262 _0216_
*263 _0217_
*264 _0218_
*265 _0219_
*266 _0220_
*267 _0221_
*268 _0222_
*269 _0223_
*270 _0224_
*271 _0225_
*272 _0226_
*273 _0227_
*274 _0228_
*275 _0229_
*276 _0230_
*277 _0231_
*278 _0232_
*279 _0233_
*280 _0234_
*281 _0235_
*282 _0236_
*283 _0237_
*284 _0238_
*285 _0239_
*286 _0240_
*287 _0241_
*288 _0242_
*289 _0243_
*290 _0244_
*291 _0245_
*292 _0246_
*293 _0247_
*294 _0248_
*295 _0249_
*296 _0250_
*297 _0251_
*298 _0252_
*299 _0253_
*300 _0254_
*301 _0255_
*302 _0256_
*303 _0257_
*304 _0258_
*305 _0259_
*306 _0260_
*307 _0261_
*308 _0262_
*309 _0263_
*310 _0264_
*311 _0265_
*312 _0266_
*313 _0267_
*314 _0268_
*315 _0269_
*316 _0270_
*317 _0271_
*318 _0272_
*319 _0273_
*320 _0274_
*321 _0275_
*322 _0276_
*323 _0277_
*324 _0278_
*325 _0279_
*326 _0280_
*327 _0281_
*328 _0282_
*329 _0283_
*330 _0284_
*331 _0285_
*332 _0286_
*333 _0287_
*334 _0288_
*335 _0289_
*336 _0290_
*337 _0291_
*338 _0292_
*339 _0293_
*340 _0294_
*341 _0295_
*342 _0296_
*343 _0297_
*344 _0298_
*345 _0299_
*346 _0300_
*347 _0301_
*348 _0302_
*349 _0303_
*350 _0304_
*351 _0305_
*352 _0306_
*353 _0307_
*354 _0308_
*355 _0309_
*356 _0310_
*357 _0311_
*358 _0312_
*359 _0313_
*360 _0314_
*361 _0315_
*362 _0316_
*363 _0317_
*364 _0318_
*365 _0319_
*366 _0320_
*367 _0321_
*368 _0322_
*369 _0323_
*370 _0324_
*371 _0325_
*372 _0326_
*373 _0327_
*374 _0328_
*375 _0329_
*376 _0330_
*377 _0331_
*378 _0332_
*379 _0333_
*380 _0334_
*381 _0335_
*382 _0336_
*383 _0337_
*384 _0338_
*385 _0339_
*386 _0340_
*387 _0341_
*388 _0342_
*389 _0343_
*390 _0344_
*391 _0345_
*392 _0346_
*393 _0347_
*394 _0348_
*395 _0349_
*396 _0350_
*397 _0351_
*398 _0352_
*399 _0353_
*400 _0354_
*401 _0355_
*402 _0356_
*403 _0357_
*404 _0358_
*405 _0359_
*406 _0360_
*407 _0361_
*408 _0362_
*409 _0363_
*410 _0364_
*411 _0365_
*412 _0366_
*413 _0367_
*414 _0368_
*415 _0369_
*416 _0370_
*417 _0371_
*418 _0372_
*419 _0373_
*420 _0374_
*421 _0375_
*422 _0376_
*423 _0377_
*424 _0378_
*425 _0379_
*426 _0380_
*427 _0381_
*428 _0382_
*429 _0383_
*430 _0384_
*431 _0385_
*432 _0386_
*433 _0387_
*434 _0388_
*435 _0389_
*436 _0390_
*437 _0391_
*438 _0392_
*439 _0393_
*440 _0394_
*441 _0395_
*442 _0396_
*443 _0397_
*444 _0398_
*445 _0399_
*446 _0400_
*447 _0401_
*448 _0402_
*449 _0403_
*450 _0404_
*451 _0405_
*452 _0406_
*453 _0407_
*454 _0408_
*455 _0409_
*456 _0410_
*457 _0411_
*458 _0412_
*459 _0413_
*460 _0414_
*461 _0415_
*462 _0416_
*463 _0417_
*464 _0418_
*465 _0419_
*466 _0420_
*467 _0421_
*468 _0422_
*469 _0423_
*470 _0424_
*471 _0425_
*472 _0426_
*473 _0427_
*474 _0428_
*475 _0429_
*476 _0430_
*477 _0431_
*478 _0432_
*479 _0433_
*480 _0434_
*481 _0435_
*482 _0436_
*483 _0437_
*484 _0438_
*485 _0439_
*486 _0440_
*487 _0441_
*488 _0442_
*489 _0443_
*490 _0444_
*491 _0445_
*492 _0446_
*493 _0447_
*494 _0448_
*495 _0449_
*496 _0450_
*497 _0451_
*498 _0452_
*499 _0453_
*500 _0454_
*501 _0455_
*502 _0456_
*503 _0457_
*504 _0458_
*505 _0459_
*506 _0460_
*507 _0461_
*508 _0462_
*509 _0463_
*510 _0464_
*511 _0465_
*512 _0466_
*513 _0467_
*514 _0468_
*515 _0469_
*516 _0470_
*517 _0471_
*518 _0472_
*519 _0473_
*520 _0474_
*521 _0475_
*522 _0476_
*523 _0477_
*524 _0478_
*525 _0479_
*526 _0480_
*527 _0481_
*528 _0482_
*529 _0483_
*530 _0484_
*531 _0485_
*532 _0486_
*533 _0487_
*534 _0488_
*535 _0489_
*536 _0490_
*537 _0491_
*538 _0492_
*539 _0493_
*540 _0494_
*541 _0495_
*542 _0496_
*543 _0497_
*544 _0498_
*545 _0499_
*546 _0500_
*547 _0501_
*548 _0502_
*549 _0503_
*550 _0504_
*551 _0505_
*552 _0506_
*553 _0507_
*554 _0508_
*555 _0509_
*556 _0510_
*557 _0511_
*558 _0512_
*559 _0513_
*560 _0514_
*561 _0515_
*562 _0516_
*563 _0517_
*564 _0518_
*565 _0519_
*566 _0520_
*567 _0521_
*568 _0522_
*569 _0523_
*570 _0524_
*571 _0525_
*572 _0526_
*573 _0527_
*574 _0528_
*575 _0529_
*576 _0530_
*577 _0531_
*578 _0532_
*579 _0533_
*580 _0534_
*581 _0535_
*582 _0536_
*583 _0537_
*584 _0538_
*585 _0539_
*586 _0540_
*587 _0541_
*588 _0542_
*589 _0543_
*590 _0544_
*591 _0545_
*592 _0546_
*593 _0547_
*594 _0548_
*595 _0549_
*596 _0550_
*597 _0551_
*598 _0552_
*599 _0553_
*600 _0554_
*601 _0555_
*602 _0556_
*603 _0557_
*604 _0558_
*605 _0559_
*606 _0560_
*607 _0561_
*608 _0562_
*609 _0563_
*610 _0564_
*611 _0565_
*612 _0566_
*613 _0567_
*614 _0568_
*615 _0569_
*616 _0570_
*617 _0571_
*618 _0572_
*619 _0573_
*620 _0574_
*621 _0575_
*622 _0576_
*623 _0577_
*624 _0578_
*625 _0579_
*626 _0580_
*627 _0581_
*628 _0582_
*629 _0583_
*630 _0584_
*631 _0585_
*632 _0586_
*633 _0587_
*634 _0588_
*635 _0589_
*636 _0590_
*637 _0591_
*638 _0592_
*639 _0593_
*640 _0594_
*641 _0595_
*642 _0596_
*643 _0597_
*644 _0598_
*645 _0599_
*646 _0600_
*647 _0601_
*648 _0602_
*649 _0603_
*650 _0604_
*651 _0605_
*652 _0606_
*653 _0607_
*654 _0608_
*655 _0609_
*656 _0610_
*657 _0611_
*658 _0612_
*659 _0613_
*660 _0614_
*661 _0615_
*662 _0616_
*663 _0617_
*664 _0618_
*665 _0619_
*666 _0620_
*667 _0621_
*668 _0622_
*669 _0623_
*670 _0624_
*671 _0625_
*672 _0626_
*673 _0627_
*674 _0628_
*675 _0629_
*676 _0630_
*677 _0631_
*678 _0632_
*679 _0633_
*680 _0634_
*681 _0635_
*682 _0636_
*683 _0637_
*684 _0638_
*685 _0639_
*686 _0640_
*687 _0641_
*688 _0642_
*689 _0643_
*690 _0644_
*691 _0645_
*692 _0646_
*693 _0647_
*694 _0648_
*695 _0649_
*696 _0650_
*697 _0651_
*698 _0652_
*699 _0653_
*700 _0654_
*701 _0655_
*702 _0656_
*703 _0657_
*704 _0658_
*705 _0659_
*706 _0660_
*707 _0661_
*708 _0662_
*709 _0663_
*710 _0664_
*711 _0665_
*712 clknet_0_clk
*713 clknet_3_0__leaf_clk
*714 clknet_3_1__leaf_clk
*715 clknet_3_2__leaf_clk
*716 clknet_3_3__leaf_clk
*717 clknet_3_4__leaf_clk
*718 clknet_3_5__leaf_clk
*719 clknet_3_6__leaf_clk
*720 clknet_3_7__leaf_clk
*721 net1
*722 net12
*723 net13
*724 net14
*725 net15
*726 net16
*727 net17
*728 net18
*729 net19
*730 net2
*731 net20
*732 net21
*733 net22
*734 net23
*735 net24
*736 net25
*737 net26
*738 net27
*739 net28
*740 net29
*741 net3
*742 net30
*743 net31
*744 net32
*745 net33
*746 net34
*747 net35
*748 net36
*749 net37
*750 net38
*751 net4
*752 net5
*753 net6
*754 net7
*755 net8
*756 net9
*757 vga\.b0
*758 vga\.ball_motion_l
*759 vga\.ball_pos_h\[0\]
*760 vga\.ball_pos_h\[1\]
*761 vga\.ball_pos_h\[2\]
*762 vga\.ball_pos_h\[3\]
*763 vga\.ball_pos_h\[4\]
*764 vga\.ball_pos_h\[5\]
*765 vga\.ball_pos_h\[6\]
*766 vga\.ball_pos_h\[7\]
*767 vga\.ball_pos_h\[8\]
*768 vga\.ball_pos_h\[9\]
*769 vga\.blank_h
*770 vga\.blank_v
*771 vga\.count_h\[0\]
*772 vga\.count_h\[1\]
*773 vga\.count_h\[2\]
*774 vga\.count_h\[3\]
*775 vga\.count_h\[4\]
*776 vga\.count_h\[5\]
*777 vga\.count_h\[6\]
*778 vga\.count_h\[7\]
*779 vga\.count_h\[8\]
*780 vga\.count_h\[9\]
*781 vga\.count_v\[0\]
*782 vga\.count_v\[1\]
*783 vga\.count_v\[2\]
*784 vga\.count_v\[3\]
*785 vga\.count_v\[4\]
*786 vga\.count_v\[5\]
*787 vga\.count_v\[6\]
*788 vga\.count_v\[7\]
*789 vga\.count_v\[8\]
*790 vga\.g0
*791 vga\.hs
*792 vga\.hs_out
*793 vga\.interval_counter\[0\]
*794 vga\.interval_counter\[10\]
*795 vga\.interval_counter\[11\]
*796 vga\.interval_counter\[12\]
*797 vga\.interval_counter\[13\]
*798 vga\.interval_counter\[14\]
*799 vga\.interval_counter\[15\]
*800 vga\.interval_counter\[16\]
*801 vga\.interval_counter\[17\]
*802 vga\.interval_counter\[18\]
*803 vga\.interval_counter\[19\]
*804 vga\.interval_counter\[1\]
*805 vga\.interval_counter\[20\]
*806 vga\.interval_counter\[21\]
*807 vga\.interval_counter\[22\]
*808 vga\.interval_counter\[23\]
*809 vga\.interval_counter\[24\]
*810 vga\.interval_counter\[2\]
*811 vga\.interval_counter\[3\]
*812 vga\.interval_counter\[4\]
*813 vga\.interval_counter\[5\]
*814 vga\.interval_counter\[6\]
*815 vga\.interval_counter\[7\]
*816 vga\.interval_counter\[8\]
*817 vga\.interval_counter\[9\]
*818 vga\.left_down_1d
*819 vga\.left_down_pressed
*820 vga\.left_up_1d
*821 vga\.left_up_pressed
*822 vga\.paddle_l_pos_v\[0\]
*823 vga\.paddle_l_pos_v\[1\]
*824 vga\.paddle_l_pos_v\[2\]
*825 vga\.paddle_l_pos_v\[3\]
*826 vga\.paddle_l_pos_v\[4\]
*827 vga\.paddle_l_pos_v\[5\]
*828 vga\.paddle_l_pos_v\[6\]
*829 vga\.paddle_l_pos_v\[7\]
*830 vga\.paddle_l_pos_v\[8\]
*831 vga\.paddle_r_pos_v\[0\]
*832 vga\.paddle_r_pos_v\[1\]
*833 vga\.paddle_r_pos_v\[2\]
*834 vga\.paddle_r_pos_v\[3\]
*835 vga\.paddle_r_pos_v\[4\]
*836 vga\.paddle_r_pos_v\[5\]
*837 vga\.paddle_r_pos_v\[6\]
*838 vga\.paddle_r_pos_v\[7\]
*839 vga\.paddle_r_pos_v\[8\]
*840 vga\.right_down_1d
*841 vga\.right_down_pressed
*842 vga\.right_up_1d
*843 vga\.right_up_pressed
*844 vga\.vs
*845 vga\.vs_out
*846 ANTENNA_1
*847 ANTENNA_2
*848 FILLER_0_0_109
*849 FILLER_0_0_113
*850 FILLER_0_0_125
*851 FILLER_0_0_137
*852 FILLER_0_0_141
*853 FILLER_0_0_15
*854 FILLER_0_0_153
*855 FILLER_0_0_165
*856 FILLER_0_0_169
*857 FILLER_0_0_181
*858 FILLER_0_0_193
*859 FILLER_0_0_197
*860 FILLER_0_0_212
*861 FILLER_0_0_220
*862 FILLER_0_0_225
*863 FILLER_0_0_233
*864 FILLER_0_0_250
*865 FILLER_0_0_253
*866 FILLER_0_0_262
*867 FILLER_0_0_27
*868 FILLER_0_0_274
*869 FILLER_0_0_281
*870 FILLER_0_0_29
*871 FILLER_0_0_293
*872 FILLER_0_0_3
*873 FILLER_0_0_305
*874 FILLER_0_0_309
*875 FILLER_0_0_321
*876 FILLER_0_0_333
*877 FILLER_0_0_337
*878 FILLER_0_0_349
*879 FILLER_0_0_41
*880 FILLER_0_0_53
*881 FILLER_0_0_57
*882 FILLER_0_0_69
*883 FILLER_0_0_81
*884 FILLER_0_0_85
*885 FILLER_0_0_97
*886 FILLER_0_10_109
*887 FILLER_0_10_121
*888 FILLER_0_10_133
*889 FILLER_0_10_139
*890 FILLER_0_10_141
*891 FILLER_0_10_15
*892 FILLER_0_10_153
*893 FILLER_0_10_165
*894 FILLER_0_10_177
*895 FILLER_0_10_185
*896 FILLER_0_10_213
*897 FILLER_0_10_218
*898 FILLER_0_10_226
*899 FILLER_0_10_235
*900 FILLER_0_10_247
*901 FILLER_0_10_251
*902 FILLER_0_10_259
*903 FILLER_0_10_27
*904 FILLER_0_10_29
*905 FILLER_0_10_293
*906 FILLER_0_10_298
*907 FILLER_0_10_3
*908 FILLER_0_10_305
*909 FILLER_0_10_312
*910 FILLER_0_10_318
*911 FILLER_0_10_338
*912 FILLER_0_10_350
*913 FILLER_0_10_41
*914 FILLER_0_10_53
*915 FILLER_0_10_65
*916 FILLER_0_10_77
*917 FILLER_0_10_83
*918 FILLER_0_10_85
*919 FILLER_0_10_97
*920 FILLER_0_11_105
*921 FILLER_0_11_111
*922 FILLER_0_11_113
*923 FILLER_0_11_125
*924 FILLER_0_11_137
*925 FILLER_0_11_149
*926 FILLER_0_11_15
*927 FILLER_0_11_161
*928 FILLER_0_11_167
*929 FILLER_0_11_169
*930 FILLER_0_11_181
*931 FILLER_0_11_193
*932 FILLER_0_11_201
*933 FILLER_0_11_211
*934 FILLER_0_11_223
*935 FILLER_0_11_225
*936 FILLER_0_11_229
*937 FILLER_0_11_233
*938 FILLER_0_11_237
*939 FILLER_0_11_244
*940 FILLER_0_11_248
*941 FILLER_0_11_265
*942 FILLER_0_11_27
*943 FILLER_0_11_276
*944 FILLER_0_11_281
*945 FILLER_0_11_293
*946 FILLER_0_11_297
*947 FILLER_0_11_3
*948 FILLER_0_11_300
*949 FILLER_0_11_306
*950 FILLER_0_11_323
*951 FILLER_0_11_335
*952 FILLER_0_11_337
*953 FILLER_0_11_349
*954 FILLER_0_11_39
*955 FILLER_0_11_51
*956 FILLER_0_11_55
*957 FILLER_0_11_57
*958 FILLER_0_11_69
*959 FILLER_0_11_81
*960 FILLER_0_11_93
*961 FILLER_0_12_109
*962 FILLER_0_12_121
*963 FILLER_0_12_133
*964 FILLER_0_12_139
*965 FILLER_0_12_141
*966 FILLER_0_12_15
*967 FILLER_0_12_153
*968 FILLER_0_12_165
*969 FILLER_0_12_177
*970 FILLER_0_12_189
*971 FILLER_0_12_195
*972 FILLER_0_12_197
*973 FILLER_0_12_209
*974 FILLER_0_12_221
*975 FILLER_0_12_243
*976 FILLER_0_12_251
*977 FILLER_0_12_269
*978 FILLER_0_12_27
*979 FILLER_0_12_281
*980 FILLER_0_12_289
*981 FILLER_0_12_29
*982 FILLER_0_12_3
*983 FILLER_0_12_320
*984 FILLER_0_12_340
*985 FILLER_0_12_348
*986 FILLER_0_12_41
*987 FILLER_0_12_53
*988 FILLER_0_12_61
*989 FILLER_0_12_68
*990 FILLER_0_12_80
*991 FILLER_0_12_85
*992 FILLER_0_12_97
*993 FILLER_0_13_102
*994 FILLER_0_13_110
*995 FILLER_0_13_113
*996 FILLER_0_13_125
*997 FILLER_0_13_137
*998 FILLER_0_13_149
*999 FILLER_0_13_15
*1000 FILLER_0_13_161
*1001 FILLER_0_13_167
*1002 FILLER_0_13_169
*1003 FILLER_0_13_181
*1004 FILLER_0_13_193
*1005 FILLER_0_13_205
*1006 FILLER_0_13_209
*1007 FILLER_0_13_213
*1008 FILLER_0_13_221
*1009 FILLER_0_13_225
*1010 FILLER_0_13_234
*1011 FILLER_0_13_245
*1012 FILLER_0_13_251
*1013 FILLER_0_13_260
*1014 FILLER_0_13_27
*1015 FILLER_0_13_273
*1016 FILLER_0_13_279
*1017 FILLER_0_13_281
*1018 FILLER_0_13_3
*1019 FILLER_0_13_302
*1020 FILLER_0_13_306
*1021 FILLER_0_13_318
*1022 FILLER_0_13_327
*1023 FILLER_0_13_335
*1024 FILLER_0_13_343
*1025 FILLER_0_13_35
*1026 FILLER_0_13_53
*1027 FILLER_0_13_57
*1028 FILLER_0_13_69
*1029 FILLER_0_13_90
*1030 FILLER_0_14_132
*1031 FILLER_0_14_141
*1032 FILLER_0_14_15
*1033 FILLER_0_14_153
*1034 FILLER_0_14_165
*1035 FILLER_0_14_177
*1036 FILLER_0_14_189
*1037 FILLER_0_14_195
*1038 FILLER_0_14_197
*1039 FILLER_0_14_205
*1040 FILLER_0_14_23
*1041 FILLER_0_14_232
*1042 FILLER_0_14_236
*1043 FILLER_0_14_27
*1044 FILLER_0_14_270
*1045 FILLER_0_14_283
*1046 FILLER_0_14_29
*1047 FILLER_0_14_294
*1048 FILLER_0_14_3
*1049 FILLER_0_14_306
*1050 FILLER_0_14_309
*1051 FILLER_0_14_318
*1052 FILLER_0_14_326
*1053 FILLER_0_14_33
*1054 FILLER_0_14_42
*1055 FILLER_0_14_48
*1056 FILLER_0_14_81
*1057 FILLER_0_14_85
*1058 FILLER_0_14_93
*1059 FILLER_0_15_101
*1060 FILLER_0_15_109
*1061 FILLER_0_15_113
*1062 FILLER_0_15_132
*1063 FILLER_0_15_144
*1064 FILLER_0_15_156
*1065 FILLER_0_15_169
*1066 FILLER_0_15_173
*1067 FILLER_0_15_19
*1068 FILLER_0_15_197
*1069 FILLER_0_15_205
*1070 FILLER_0_15_217
*1071 FILLER_0_15_223
*1072 FILLER_0_15_225
*1073 FILLER_0_15_23
*1074 FILLER_0_15_237
*1075 FILLER_0_15_241
*1076 FILLER_0_15_253
*1077 FILLER_0_15_261
*1078 FILLER_0_15_278
*1079 FILLER_0_15_288
*1080 FILLER_0_15_296
*1081 FILLER_0_15_311
*1082 FILLER_0_15_319
*1083 FILLER_0_15_334
*1084 FILLER_0_15_337
*1085 FILLER_0_15_348
*1086 FILLER_0_15_35
*1087 FILLER_0_15_47
*1088 FILLER_0_15_53
*1089 FILLER_0_15_63
*1090 FILLER_0_15_71
*1091 FILLER_0_15_80
*1092 FILLER_0_15_88
*1093 FILLER_0_16_112
*1094 FILLER_0_16_117
*1095 FILLER_0_16_125
*1096 FILLER_0_16_134
*1097 FILLER_0_16_14
*1098 FILLER_0_16_141
*1099 FILLER_0_16_147
*1100 FILLER_0_16_166
*1101 FILLER_0_16_178
*1102 FILLER_0_16_190
*1103 FILLER_0_16_20
*1104 FILLER_0_16_205
*1105 FILLER_0_16_209
*1106 FILLER_0_16_228
*1107 FILLER_0_16_236
*1108 FILLER_0_16_248
*1109 FILLER_0_16_253
*1110 FILLER_0_16_270
*1111 FILLER_0_16_287
*1112 FILLER_0_16_293
*1113 FILLER_0_16_3
*1114 FILLER_0_16_307
*1115 FILLER_0_16_309
*1116 FILLER_0_16_315
*1117 FILLER_0_16_326
*1118 FILLER_0_16_338
*1119 FILLER_0_16_350
*1120 FILLER_0_16_38
*1121 FILLER_0_16_44
*1122 FILLER_0_16_51
*1123 FILLER_0_16_63
*1124 FILLER_0_16_71
*1125 FILLER_0_16_85
*1126 FILLER_0_16_98
*1127 FILLER_0_17_120
*1128 FILLER_0_17_143
*1129 FILLER_0_17_150
*1130 FILLER_0_17_167
*1131 FILLER_0_17_185
*1132 FILLER_0_17_220
*1133 FILLER_0_17_225
*1134 FILLER_0_17_23
*1135 FILLER_0_17_232
*1136 FILLER_0_17_244
*1137 FILLER_0_17_252
*1138 FILLER_0_17_264
*1139 FILLER_0_17_276
*1140 FILLER_0_17_281
*1141 FILLER_0_17_289
*1142 FILLER_0_17_299
*1143 FILLER_0_17_307
*1144 FILLER_0_17_313
*1145 FILLER_0_17_328
*1146 FILLER_0_17_337
*1147 FILLER_0_17_35
*1148 FILLER_0_17_43
*1149 FILLER_0_17_53
*1150 FILLER_0_17_63
*1151 FILLER_0_17_70
*1152 FILLER_0_17_76
*1153 FILLER_0_17_83
*1154 FILLER_0_17_91
*1155 FILLER_0_17_96
*1156 FILLER_0_18_109
*1157 FILLER_0_18_118
*1158 FILLER_0_18_125
*1159 FILLER_0_18_137
*1160 FILLER_0_18_14
*1161 FILLER_0_18_141
*1162 FILLER_0_18_153
*1163 FILLER_0_18_157
*1164 FILLER_0_18_170
*1165 FILLER_0_18_188
*1166 FILLER_0_18_197
*1167 FILLER_0_18_237
*1168 FILLER_0_18_242
*1169 FILLER_0_18_250
*1170 FILLER_0_18_253
*1171 FILLER_0_18_26
*1172 FILLER_0_18_264
*1173 FILLER_0_18_268
*1174 FILLER_0_18_272
*1175 FILLER_0_18_280
*1176 FILLER_0_18_297
*1177 FILLER_0_18_3
*1178 FILLER_0_18_49
*1179 FILLER_0_18_55
*1180 FILLER_0_18_61
*1181 FILLER_0_18_79
*1182 FILLER_0_18_83
*1183 FILLER_0_18_85
*1184 FILLER_0_18_91
*1185 FILLER_0_18_97
*1186 FILLER_0_19_109
*1187 FILLER_0_19_113
*1188 FILLER_0_19_124
*1189 FILLER_0_19_128
*1190 FILLER_0_19_139
*1191 FILLER_0_19_167
*1192 FILLER_0_19_169
*1193 FILLER_0_19_191
*1194 FILLER_0_19_197
*1195 FILLER_0_19_210
*1196 FILLER_0_19_222
*1197 FILLER_0_19_225
*1198 FILLER_0_19_237
*1199 FILLER_0_19_247
*1200 FILLER_0_19_259
*1201 FILLER_0_19_273
*1202 FILLER_0_19_279
*1203 FILLER_0_19_281
*1204 FILLER_0_19_290
*1205 FILLER_0_19_302
*1206 FILLER_0_19_314
*1207 FILLER_0_19_32
*1208 FILLER_0_19_326
*1209 FILLER_0_19_332
*1210 FILLER_0_19_346
*1211 FILLER_0_19_350
*1212 FILLER_0_19_42
*1213 FILLER_0_19_54
*1214 FILLER_0_19_64
*1215 FILLER_0_19_72
*1216 FILLER_0_19_83
*1217 FILLER_0_19_87
*1218 FILLER_0_1_105
*1219 FILLER_0_1_111
*1220 FILLER_0_1_113
*1221 FILLER_0_1_125
*1222 FILLER_0_1_137
*1223 FILLER_0_1_149
*1224 FILLER_0_1_15
*1225 FILLER_0_1_161
*1226 FILLER_0_1_167
*1227 FILLER_0_1_169
*1228 FILLER_0_1_181
*1229 FILLER_0_1_193
*1230 FILLER_0_1_221
*1231 FILLER_0_1_230
*1232 FILLER_0_1_239
*1233 FILLER_0_1_255
*1234 FILLER_0_1_27
*1235 FILLER_0_1_275
*1236 FILLER_0_1_279
*1237 FILLER_0_1_281
*1238 FILLER_0_1_289
*1239 FILLER_0_1_3
*1240 FILLER_0_1_308
*1241 FILLER_0_1_320
*1242 FILLER_0_1_332
*1243 FILLER_0_1_337
*1244 FILLER_0_1_349
*1245 FILLER_0_1_39
*1246 FILLER_0_1_51
*1247 FILLER_0_1_55
*1248 FILLER_0_1_57
*1249 FILLER_0_1_69
*1250 FILLER_0_1_81
*1251 FILLER_0_1_93
*1252 FILLER_0_20_109
*1253 FILLER_0_20_113
*1254 FILLER_0_20_121
*1255 FILLER_0_20_136
*1256 FILLER_0_20_149
*1257 FILLER_0_20_15
*1258 FILLER_0_20_161
*1259 FILLER_0_20_173
*1260 FILLER_0_20_193
*1261 FILLER_0_20_203
*1262 FILLER_0_20_208
*1263 FILLER_0_20_227
*1264 FILLER_0_20_248
*1265 FILLER_0_20_27
*1266 FILLER_0_20_278
*1267 FILLER_0_20_289
*1268 FILLER_0_20_29
*1269 FILLER_0_20_295
*1270 FILLER_0_20_3
*1271 FILLER_0_20_315
*1272 FILLER_0_20_332
*1273 FILLER_0_20_344
*1274 FILLER_0_20_350
*1275 FILLER_0_20_42
*1276 FILLER_0_20_48
*1277 FILLER_0_20_62
*1278 FILLER_0_20_70
*1279 FILLER_0_20_85
*1280 FILLER_0_20_92
*1281 FILLER_0_20_98
*1282 FILLER_0_21_103
*1283 FILLER_0_21_111
*1284 FILLER_0_21_123
*1285 FILLER_0_21_13
*1286 FILLER_0_21_139
*1287 FILLER_0_21_145
*1288 FILLER_0_21_166
*1289 FILLER_0_21_169
*1290 FILLER_0_21_193
*1291 FILLER_0_21_200
*1292 FILLER_0_21_212
*1293 FILLER_0_21_225
*1294 FILLER_0_21_243
*1295 FILLER_0_21_247
*1296 FILLER_0_21_259
*1297 FILLER_0_21_271
*1298 FILLER_0_21_287
*1299 FILLER_0_21_293
*1300 FILLER_0_21_3
*1301 FILLER_0_21_30
*1302 FILLER_0_21_305
*1303 FILLER_0_21_317
*1304 FILLER_0_21_333
*1305 FILLER_0_21_337
*1306 FILLER_0_21_45
*1307 FILLER_0_21_49
*1308 FILLER_0_21_54
*1309 FILLER_0_21_63
*1310 FILLER_0_21_7
*1311 FILLER_0_21_87
*1312 FILLER_0_21_96
*1313 FILLER_0_22_107
*1314 FILLER_0_22_115
*1315 FILLER_0_22_127
*1316 FILLER_0_22_134
*1317 FILLER_0_22_141
*1318 FILLER_0_22_149
*1319 FILLER_0_22_155
*1320 FILLER_0_22_167
*1321 FILLER_0_22_171
*1322 FILLER_0_22_195
*1323 FILLER_0_22_205
*1324 FILLER_0_22_21
*1325 FILLER_0_22_217
*1326 FILLER_0_22_225
*1327 FILLER_0_22_240
*1328 FILLER_0_22_261
*1329 FILLER_0_22_27
*1330 FILLER_0_22_280
*1331 FILLER_0_22_293
*1332 FILLER_0_22_3
*1333 FILLER_0_22_306
*1334 FILLER_0_22_314
*1335 FILLER_0_22_327
*1336 FILLER_0_22_33
*1337 FILLER_0_22_37
*1338 FILLER_0_22_49
*1339 FILLER_0_22_53
*1340 FILLER_0_22_59
*1341 FILLER_0_22_67
*1342 FILLER_0_22_72
*1343 FILLER_0_22_85
*1344 FILLER_0_22_93
*1345 FILLER_0_22_99
*1346 FILLER_0_23_103
*1347 FILLER_0_23_11
*1348 FILLER_0_23_111
*1349 FILLER_0_23_117
*1350 FILLER_0_23_136
*1351 FILLER_0_23_144
*1352 FILLER_0_23_164
*1353 FILLER_0_23_169
*1354 FILLER_0_23_17
*1355 FILLER_0_23_180
*1356 FILLER_0_23_192
*1357 FILLER_0_23_200
*1358 FILLER_0_23_221
*1359 FILLER_0_23_233
*1360 FILLER_0_23_24
*1361 FILLER_0_23_260
*1362 FILLER_0_23_276
*1363 FILLER_0_23_298
*1364 FILLER_0_23_3
*1365 FILLER_0_23_310
*1366 FILLER_0_23_326
*1367 FILLER_0_23_334
*1368 FILLER_0_23_337
*1369 FILLER_0_23_349
*1370 FILLER_0_23_44
*1371 FILLER_0_23_69
*1372 FILLER_0_23_7
*1373 FILLER_0_23_76
*1374 FILLER_0_23_83
*1375 FILLER_0_24_109
*1376 FILLER_0_24_121
*1377 FILLER_0_24_134
*1378 FILLER_0_24_141
*1379 FILLER_0_24_145
*1380 FILLER_0_24_162
*1381 FILLER_0_24_18
*1382 FILLER_0_24_201
*1383 FILLER_0_24_208
*1384 FILLER_0_24_22
*1385 FILLER_0_24_220
*1386 FILLER_0_24_228
*1387 FILLER_0_24_251
*1388 FILLER_0_24_258
*1389 FILLER_0_24_27
*1390 FILLER_0_24_280
*1391 FILLER_0_24_29
*1392 FILLER_0_24_3
*1393 FILLER_0_24_305
*1394 FILLER_0_24_309
*1395 FILLER_0_24_317
*1396 FILLER_0_24_324
*1397 FILLER_0_24_336
*1398 FILLER_0_24_348
*1399 FILLER_0_24_37
*1400 FILLER_0_24_45
*1401 FILLER_0_24_53
*1402 FILLER_0_24_65
*1403 FILLER_0_24_69
*1404 FILLER_0_24_77
*1405 FILLER_0_24_83
*1406 FILLER_0_24_85
*1407 FILLER_0_24_9
*1408 FILLER_0_24_97
*1409 FILLER_0_25_107
*1410 FILLER_0_25_124
*1411 FILLER_0_25_13
*1412 FILLER_0_25_136
*1413 FILLER_0_25_148
*1414 FILLER_0_25_164
*1415 FILLER_0_25_172
*1416 FILLER_0_25_184
*1417 FILLER_0_25_200
*1418 FILLER_0_25_21
*1419 FILLER_0_25_241
*1420 FILLER_0_25_250
*1421 FILLER_0_25_267
*1422 FILLER_0_25_279
*1423 FILLER_0_25_28
*1424 FILLER_0_25_281
*1425 FILLER_0_25_293
*1426 FILLER_0_25_3
*1427 FILLER_0_25_305
*1428 FILLER_0_25_309
*1429 FILLER_0_25_326
*1430 FILLER_0_25_334
*1431 FILLER_0_25_337
*1432 FILLER_0_25_349
*1433 FILLER_0_25_39
*1434 FILLER_0_25_51
*1435 FILLER_0_25_55
*1436 FILLER_0_25_57
*1437 FILLER_0_25_67
*1438 FILLER_0_25_87
*1439 FILLER_0_25_98
*1440 FILLER_0_26_118
*1441 FILLER_0_26_126
*1442 FILLER_0_26_13
*1443 FILLER_0_26_135
*1444 FILLER_0_26_139
*1445 FILLER_0_26_141
*1446 FILLER_0_26_145
*1447 FILLER_0_26_160
*1448 FILLER_0_26_168
*1449 FILLER_0_26_179
*1450 FILLER_0_26_192
*1451 FILLER_0_26_203
*1452 FILLER_0_26_21
*1453 FILLER_0_26_215
*1454 FILLER_0_26_223
*1455 FILLER_0_26_229
*1456 FILLER_0_26_237
*1457 FILLER_0_26_246
*1458 FILLER_0_26_25
*1459 FILLER_0_26_253
*1460 FILLER_0_26_261
*1461 FILLER_0_26_270
*1462 FILLER_0_26_280
*1463 FILLER_0_26_289
*1464 FILLER_0_26_29
*1465 FILLER_0_26_293
*1466 FILLER_0_26_3
*1467 FILLER_0_26_306
*1468 FILLER_0_26_309
*1469 FILLER_0_26_314
*1470 FILLER_0_26_331
*1471 FILLER_0_26_343
*1472 FILLER_0_26_41
*1473 FILLER_0_26_64
*1474 FILLER_0_26_75
*1475 FILLER_0_26_83
*1476 FILLER_0_26_91
*1477 FILLER_0_26_99
*1478 FILLER_0_27_107
*1479 FILLER_0_27_111
*1480 FILLER_0_27_113
*1481 FILLER_0_27_117
*1482 FILLER_0_27_127
*1483 FILLER_0_27_135
*1484 FILLER_0_27_147
*1485 FILLER_0_27_154
*1486 FILLER_0_27_166
*1487 FILLER_0_27_17
*1488 FILLER_0_27_176
*1489 FILLER_0_27_188
*1490 FILLER_0_27_219
*1491 FILLER_0_27_237
*1492 FILLER_0_27_241
*1493 FILLER_0_27_248
*1494 FILLER_0_27_273
*1495 FILLER_0_27_279
*1496 FILLER_0_27_281
*1497 FILLER_0_27_296
*1498 FILLER_0_27_3
*1499 FILLER_0_27_308
*1500 FILLER_0_27_316
*1501 FILLER_0_27_332
*1502 FILLER_0_27_337
*1503 FILLER_0_27_349
*1504 FILLER_0_27_41
*1505 FILLER_0_27_53
*1506 FILLER_0_27_57
*1507 FILLER_0_27_79
*1508 FILLER_0_27_87
*1509 FILLER_0_27_98
*1510 FILLER_0_28_110
*1511 FILLER_0_28_133
*1512 FILLER_0_28_139
*1513 FILLER_0_28_15
*1514 FILLER_0_28_153
*1515 FILLER_0_28_166
*1516 FILLER_0_28_172
*1517 FILLER_0_28_187
*1518 FILLER_0_28_195
*1519 FILLER_0_28_197
*1520 FILLER_0_28_203
*1521 FILLER_0_28_210
*1522 FILLER_0_28_220
*1523 FILLER_0_28_231
*1524 FILLER_0_28_243
*1525 FILLER_0_28_251
*1526 FILLER_0_28_253
*1527 FILLER_0_28_262
*1528 FILLER_0_28_27
*1529 FILLER_0_28_274
*1530 FILLER_0_28_288
*1531 FILLER_0_28_3
*1532 FILLER_0_28_300
*1533 FILLER_0_28_304
*1534 FILLER_0_28_324
*1535 FILLER_0_28_333
*1536 FILLER_0_28_34
*1537 FILLER_0_28_345
*1538 FILLER_0_28_42
*1539 FILLER_0_28_49
*1540 FILLER_0_28_57
*1541 FILLER_0_28_74
*1542 FILLER_0_28_80
*1543 FILLER_0_28_85
*1544 FILLER_0_29_103
*1545 FILLER_0_29_113
*1546 FILLER_0_29_128
*1547 FILLER_0_29_140
*1548 FILLER_0_29_169
*1549 FILLER_0_29_180
*1550 FILLER_0_29_19
*1551 FILLER_0_29_191
*1552 FILLER_0_29_214
*1553 FILLER_0_29_218
*1554 FILLER_0_29_234
*1555 FILLER_0_29_242
*1556 FILLER_0_29_252
*1557 FILLER_0_29_264
*1558 FILLER_0_29_272
*1559 FILLER_0_29_292
*1560 FILLER_0_29_303
*1561 FILLER_0_29_31
*1562 FILLER_0_29_312
*1563 FILLER_0_29_324
*1564 FILLER_0_29_334
*1565 FILLER_0_29_337
*1566 FILLER_0_29_345
*1567 FILLER_0_29_41
*1568 FILLER_0_29_53
*1569 FILLER_0_2_109
*1570 FILLER_0_2_121
*1571 FILLER_0_2_133
*1572 FILLER_0_2_139
*1573 FILLER_0_2_141
*1574 FILLER_0_2_15
*1575 FILLER_0_2_153
*1576 FILLER_0_2_165
*1577 FILLER_0_2_177
*1578 FILLER_0_2_189
*1579 FILLER_0_2_195
*1580 FILLER_0_2_197
*1581 FILLER_0_2_209
*1582 FILLER_0_2_226
*1583 FILLER_0_2_234
*1584 FILLER_0_2_238
*1585 FILLER_0_2_245
*1586 FILLER_0_2_251
*1587 FILLER_0_2_253
*1588 FILLER_0_2_261
*1589 FILLER_0_2_269
*1590 FILLER_0_2_27
*1591 FILLER_0_2_274
*1592 FILLER_0_2_286
*1593 FILLER_0_2_29
*1594 FILLER_0_2_294
*1595 FILLER_0_2_3
*1596 FILLER_0_2_300
*1597 FILLER_0_2_309
*1598 FILLER_0_2_335
*1599 FILLER_0_2_347
*1600 FILLER_0_2_41
*1601 FILLER_0_2_53
*1602 FILLER_0_2_65
*1603 FILLER_0_2_77
*1604 FILLER_0_2_83
*1605 FILLER_0_2_85
*1606 FILLER_0_2_97
*1607 FILLER_0_30_11
*1608 FILLER_0_30_120
*1609 FILLER_0_30_138
*1610 FILLER_0_30_141
*1611 FILLER_0_30_158
*1612 FILLER_0_30_162
*1613 FILLER_0_30_174
*1614 FILLER_0_30_185
*1615 FILLER_0_30_193
*1616 FILLER_0_30_197
*1617 FILLER_0_30_209
*1618 FILLER_0_30_223
*1619 FILLER_0_30_234
*1620 FILLER_0_30_240
*1621 FILLER_0_30_248
*1622 FILLER_0_30_253
*1623 FILLER_0_30_27
*1624 FILLER_0_30_279
*1625 FILLER_0_30_288
*1626 FILLER_0_30_3
*1627 FILLER_0_30_305
*1628 FILLER_0_30_309
*1629 FILLER_0_30_315
*1630 FILLER_0_30_329
*1631 FILLER_0_30_348
*1632 FILLER_0_30_37
*1633 FILLER_0_30_48
*1634 FILLER_0_30_57
*1635 FILLER_0_30_69
*1636 FILLER_0_30_75
*1637 FILLER_0_30_83
*1638 FILLER_0_30_85
*1639 FILLER_0_31_102
*1640 FILLER_0_31_11
*1641 FILLER_0_31_110
*1642 FILLER_0_31_113
*1643 FILLER_0_31_121
*1644 FILLER_0_31_129
*1645 FILLER_0_31_148
*1646 FILLER_0_31_161
*1647 FILLER_0_31_167
*1648 FILLER_0_31_185
*1649 FILLER_0_31_193
*1650 FILLER_0_31_204
*1651 FILLER_0_31_222
*1652 FILLER_0_31_225
*1653 FILLER_0_31_23
*1654 FILLER_0_31_245
*1655 FILLER_0_31_257
*1656 FILLER_0_31_263
*1657 FILLER_0_31_271
*1658 FILLER_0_31_278
*1659 FILLER_0_31_290
*1660 FILLER_0_31_3
*1661 FILLER_0_31_314
*1662 FILLER_0_31_326
*1663 FILLER_0_31_334
*1664 FILLER_0_31_337
*1665 FILLER_0_31_349
*1666 FILLER_0_31_35
*1667 FILLER_0_31_40
*1668 FILLER_0_31_52
*1669 FILLER_0_31_57
*1670 FILLER_0_31_74
*1671 FILLER_0_31_82
*1672 FILLER_0_31_90
*1673 FILLER_0_32_112
*1674 FILLER_0_32_129
*1675 FILLER_0_32_135
*1676 FILLER_0_32_139
*1677 FILLER_0_32_141
*1678 FILLER_0_32_149
*1679 FILLER_0_32_15
*1680 FILLER_0_32_155
*1681 FILLER_0_32_167
*1682 FILLER_0_32_179
*1683 FILLER_0_32_187
*1684 FILLER_0_32_195
*1685 FILLER_0_32_197
*1686 FILLER_0_32_209
*1687 FILLER_0_32_221
*1688 FILLER_0_32_228
*1689 FILLER_0_32_244
*1690 FILLER_0_32_27
*1691 FILLER_0_32_277
*1692 FILLER_0_32_289
*1693 FILLER_0_32_29
*1694 FILLER_0_32_297
*1695 FILLER_0_32_3
*1696 FILLER_0_32_305