*SPEF "ieee 1481-1999"
*DESIGN "tt_um_proppy_bytebeat"
*DATE "11:11:11 Fri 11 11, 1111"
*VENDOR "OpenRCX"
*PROGRAM "Parallel Extraction"
*VERSION "1.0"
*DESIGN_FLOW "NAME_SCOPE LOCAL" "PIN_CAP NONE"
*DIVIDER /
*DELIMITER :
*BUS_DELIMITER []
*T_UNIT 1 NS
*C_UNIT 1 PF
*R_UNIT 1 OHM
*L_UNIT 1 HENRY

*NAME_MAP
*3 clk
*4 ena
*5 rst_n
*6 ui_in[0]
*7 ui_in[1]
*8 ui_in[2]
*9 ui_in[3]
*10 ui_in[4]
*11 ui_in[5]
*12 ui_in[6]
*13 ui_in[7]
*14 uio_in[0]
*15 uio_in[1]
*16 uio_in[2]
*17 uio_in[3]
*18 uio_in[4]
*19 uio_in[5]
*20 uio_in[6]
*21 uio_in[7]
*22 net18
*23 net19
*24 net20
*25 net21
*26 net22
*27 net23
*28 net24
*29 net25
*30 net26
*31 net27
*32 net28
*33 net29
*34 net30
*35 net31
*36 net32
*37 net33
*38 uo_out[0]
*39 uo_out[1]
*40 uo_out[2]
*41 uo_out[3]
*42 uo_out[4]
*43 uo_out[5]
*44 uo_out[6]
*45 uo_out[7]
*46 _0000_
*47 _0001_
*48 _0002_
*49 _0003_
*50 _0004_
*51 _0005_
*52 _0006_
*53 _0007_
*54 _0008_
*55 _0009_
*56 _0010_
*57 _0011_
*58 _0012_
*59 _0013_
*60 _0014_
*61 _0015_
*62 _0016_
*63 _0017_
*64 _0018_
*65 _0019_
*66 _0020_
*67 _0021_
*68 _0022_
*69 _0023_
*70 _0024_
*71 _0025_
*72 _0026_
*73 _0027_
*74 _0028_
*75 _0029_
*76 _0030_
*77 _0031_
*78 _0032_
*79 _0033_
*80 _0034_
*81 _0035_
*82 _0036_
*83 _0037_
*84 _0038_
*85 _0039_
*86 _0040_
*87 _0041_
*88 _0042_
*89 _0043_
*90 _0044_
*91 _0045_
*92 _0046_
*93 _0047_
*94 _0048_
*95 _0049_
*96 _0050_
*97 _0051_
*98 _0052_
*99 _0053_
*100 _0054_
*101 _0055_
*102 _0056_
*103 _0057_
*104 _0058_
*105 _0059_
*106 _0060_
*107 _0061_
*108 _0062_
*109 _0063_
*110 _0064_
*111 _0065_
*112 _0066_
*113 _0067_
*114 _0068_
*115 _0069_
*116 _0070_
*117 _0071_
*118 _0072_
*119 _0073_
*120 _0074_
*121 _0075_
*122 _0076_
*123 _0077_
*124 _0078_
*125 _0079_
*126 _0080_
*127 _0081_
*128 _0082_
*129 _0083_
*130 _0084_
*131 _0085_
*132 _0086_
*133 _0087_
*134 _0088_
*135 _0089_
*136 _0090_
*137 _0091_
*138 _0092_
*139 _0093_
*140 _0094_
*141 _0095_
*142 _0096_
*143 _0097_
*144 _0098_
*145 _0099_
*146 _0100_
*147 _0101_
*148 _0102_
*149 _0103_
*150 _0104_
*151 _0105_
*152 _0106_
*153 _0107_
*154 _0108_
*155 _0109_
*156 _0110_
*157 _0111_
*158 _0112_
*159 _0113_
*160 _0114_
*161 _0115_
*162 _0116_
*163 _0117_
*164 _0118_
*165 _0119_
*166 _0120_
*167 _0121_
*168 _0122_
*169 _0123_
*170 _0124_
*171 _0125_
*172 _0126_
*173 _0127_
*174 _0128_
*175 _0129_
*176 _0130_
*177 _0131_
*178 _0132_
*179 _0133_
*180 _0134_
*181 _0135_
*182 _0136_
*183 _0137_
*184 _0138_
*185 _0139_
*186 _0140_
*187 _0141_
*188 _0142_
*189 _0143_
*190 _0144_
*191 _0145_
*192 _0146_
*193 _0147_
*194 _0148_
*195 _0149_
*196 _0150_
*197 _0151_
*198 _0152_
*199 _0153_
*200 _0154_
*201 _0155_
*202 _0156_
*203 _0157_
*204 _0158_
*205 _0159_
*206 _0160_
*207 _0161_
*208 _0162_
*209 _0163_
*210 _0164_
*211 _0165_
*212 _0166_
*213 _0167_
*214 _0168_
*215 _0169_
*216 _0170_
*217 _0171_
*218 _0172_
*219 _0173_
*220 _0174_
*221 _0175_
*222 _0176_
*223 _0177_
*224 _0178_
*225 _0179_
*226 _0180_
*227 _0181_
*228 _0182_
*229 _0183_
*230 _0184_
*231 _0185_
*232 _0186_
*233 _0187_
*234 _0188_
*235 _0189_
*236 _0190_
*237 _0191_
*238 _0192_
*239 _0193_
*240 _0194_
*241 _0195_
*242 _0196_
*243 _0197_
*244 _0198_
*245 _0199_
*246 _0200_
*247 _0201_
*248 _0202_
*249 _0203_
*250 _0204_
*251 _0205_
*252 _0206_
*253 _0207_
*254 _0208_
*255 _0209_
*256 _0210_
*257 _0211_
*258 _0212_
*259 _0213_
*260 _0214_
*261 _0215_
*262 _0216_
*263 _0217_
*264 _0218_
*265 _0219_
*266 _0220_
*267 _0221_
*268 _0222_
*269 _0223_
*270 _0224_
*271 _0225_
*272 _0226_
*273 _0227_
*274 _0228_
*275 _0229_
*276 _0230_
*277 _0231_
*278 _0232_
*279 _0233_
*280 _0234_
*281 _0235_
*282 _0236_
*283 _0237_
*284 _0238_
*285 _0239_
*286 _0240_
*287 _0241_
*288 _0242_
*289 _0243_
*290 _0244_
*291 _0245_
*292 _0246_
*293 _0247_
*294 _0248_
*295 _0249_
*296 _0250_
*297 _0251_
*298 _0252_
*299 _0253_
*300 _0254_
*301 _0255_
*302 _0256_
*303 _0257_
*304 _0258_
*305 _0259_
*306 _0260_
*307 _0261_
*308 _0262_
*309 _0263_
*310 _0264_
*311 _0265_
*312 _0266_
*313 _0267_
*314 _0268_
*315 _0269_
*316 _0270_
*317 _0271_
*318 _0272_
*319 _0273_
*320 _0274_
*321 _0275_
*322 _0276_
*323 _0277_
*324 _0278_
*325 _0279_
*326 _0280_
*327 _0281_
*328 _0282_
*329 _0283_
*330 _0284_
*331 _0285_
*332 _0286_
*333 _0287_
*334 _0288_
*335 _0289_
*336 _0290_
*337 _0291_
*338 _0292_
*339 _0293_
*340 _0294_
*341 _0295_
*342 _0296_
*343 _0297_
*344 _0298_
*345 _0299_
*346 _0300_
*347 _0301_
*348 _0302_
*349 _0303_
*350 _0304_
*351 _0305_
*352 _0306_
*353 _0307_
*354 _0308_
*355 _0309_
*356 _0310_
*357 _0311_
*358 _0312_
*359 _0313_
*360 _0314_
*361 _0315_
*362 _0316_
*363 _0317_
*364 _0318_
*365 _0319_
*366 _0320_
*367 _0321_
*368 _0322_
*369 _0323_
*370 _0324_
*371 _0325_
*372 _0326_
*373 _0327_
*374 _0328_
*375 _0329_
*376 _0330_
*377 _0331_
*378 _0332_
*379 _0333_
*380 _0334_
*381 _0335_
*382 _0336_
*383 _0337_
*384 _0338_
*385 _0339_
*386 _0340_
*387 _0341_
*388 _0342_
*389 _0343_
*390 _0344_
*391 _0345_
*392 _0346_
*393 _0347_
*394 _0348_
*395 _0349_
*396 _0350_
*397 _0351_
*398 _0352_
*399 _0353_
*400 _0354_
*401 _0355_
*402 _0356_
*403 _0357_
*404 _0358_
*405 _0359_
*406 _0360_
*407 _0361_
*408 _0362_
*409 _0363_
*410 _0364_
*411 _0365_
*412 _0366_
*413 _0367_
*414 _0368_
*415 _0369_
*416 _0370_
*417 _0371_
*418 _0372_
*419 _0373_
*420 _0374_
*421 _0375_
*422 _0376_
*423 _0377_
*424 _0378_
*425 _0379_
*426 _0380_
*427 _0381_
*428 _0382_
*429 _0383_
*430 _0384_
*431 _0385_
*432 _0386_
*433 _0387_
*434 _0388_
*435 _0389_
*436 _0390_
*437 _0391_
*438 _0392_
*439 _0393_
*440 _0394_
*441 _0395_
*442 _0396_
*443 _0397_
*444 _0398_
*445 _0399_
*446 _0400_
*447 _0401_
*448 _0402_
*449 _0403_
*450 _0404_
*451 _0405_
*452 _0406_
*453 _0407_
*454 _0408_
*455 _0409_
*456 _0410_
*457 _0411_
*458 _0412_
*459 _0413_
*460 _0414_
*461 _0415_
*462 _0416_
*463 _0417_
*464 _0418_
*465 _0419_
*466 _0420_
*467 _0421_
*468 _0422_
*469 _0423_
*470 _0424_
*471 _0425_
*472 _0426_
*473 _0427_
*474 _0428_
*475 _0429_
*476 _0430_
*477 _0431_
*478 _0432_
*479 _0433_
*480 _0434_
*481 _0435_
*482 _0436_
*483 _0437_
*484 _0438_
*485 _0439_
*486 _0440_
*487 _0441_
*488 _0442_
*489 _0443_
*490 _0444_
*491 _0445_
*492 _0446_
*493 _0447_
*494 _0448_
*495 _0449_
*496 _0450_
*497 _0451_
*498 _0452_
*499 _0453_
*500 _0454_
*501 _0455_
*502 _0456_
*503 _0457_
*504 _0458_
*505 _0459_
*506 _0460_
*507 _0461_
*508 _0462_
*509 _0463_
*510 _0464_
*511 _0465_
*512 _0466_
*513 _0467_
*514 _0468_
*515 _0469_
*516 bytebeat0\.____state_0\[0\]
*517 bytebeat0\.____state_0\[1\]
*518 bytebeat0\.____state_0\[2\]
*519 bytebeat0\.____state_0\[3\]
*520 bytebeat0\.____state_1\[0\]
*521 bytebeat0\.____state_1\[1\]
*522 bytebeat0\.____state_1\[2\]
*523 bytebeat0\.____state_1\[3\]
*524 bytebeat0\.____state_2\[0\]
*525 bytebeat0\.____state_2\[1\]
*526 bytebeat0\.____state_2\[2\]
*527 bytebeat0\.____state_2\[3\]
*528 bytebeat0\.____state_3\[0\]
*529 bytebeat0\.____state_3\[1\]
*530 bytebeat0\.____state_3\[2\]
*531 bytebeat0\.____state_3\[3\]
*532 bytebeat0\.____state_4\[0\]
*533 bytebeat0\.____state_4\[10\]
*534 bytebeat0\.____state_4\[11\]
*535 bytebeat0\.____state_4\[12\]
*536 bytebeat0\.____state_4\[13\]
*537 bytebeat0\.____state_4\[14\]
*538 bytebeat0\.____state_4\[15\]
*539 bytebeat0\.____state_4\[1\]
*540 bytebeat0\.____state_4\[2\]
*541 bytebeat0\.____state_4\[3\]
*542 bytebeat0\.____state_4\[4\]
*543 bytebeat0\.____state_4\[5\]
*544 bytebeat0\.____state_4\[6\]
*545 bytebeat0\.____state_4\[7\]
*546 bytebeat0\.____state_4\[8\]
*547 bytebeat0\.____state_4\[9\]
*548 bytebeat0\.__bytebeat__a_r_reg\[0\]
*549 bytebeat0\.__bytebeat__a_r_reg\[1\]
*550 bytebeat0\.__bytebeat__a_r_reg\[2\]
*551 bytebeat0\.__bytebeat__a_r_reg\[3\]
*552 bytebeat0\.__bytebeat__a_r_valid_reg
*553 bytebeat0\.__bytebeat__b_r_reg\[0\]
*554 bytebeat0\.__bytebeat__b_r_reg\[1\]
*555 bytebeat0\.__bytebeat__b_r_reg\[2\]
*556 bytebeat0\.__bytebeat__b_r_reg\[3\]
*557 bytebeat0\.__bytebeat__c_r_reg\[0\]
*558 bytebeat0\.__bytebeat__c_r_reg\[1\]
*559 bytebeat0\.__bytebeat__c_r_reg\[2\]
*560 bytebeat0\.__bytebeat__c_r_reg\[3\]
*561 bytebeat0\.__bytebeat__d_r_reg\[0\]
*562 bytebeat0\.__bytebeat__d_r_reg\[1\]
*563 bytebeat0\.__bytebeat__d_r_reg\[2\]
*564 bytebeat0\.__bytebeat__d_r_reg\[3\]
*565 clknet_0_clk
*566 clknet_3_0__leaf_clk
*567 clknet_3_1__leaf_clk
*568 clknet_3_2__leaf_clk
*569 clknet_3_3__leaf_clk
*570 clknet_3_4__leaf_clk
*571 clknet_3_5__leaf_clk
*572 clknet_3_6__leaf_clk
*573 clknet_3_7__leaf_clk
*574 net1
*575 net10
*576 net11
*577 net12
*578 net13
*579 net14
*580 net15
*581 net16
*582 net17
*583 net2
*584 net3
*585 net34
*586 net35
*587 net36
*588 net37
*589 net38
*590 net39
*591 net4
*592 net5
*593 net6
*594 net7
*595 net8
*596 net9
*597 ANTENNA_1
*598 ANTENNA_2
*599 ANTENNA_3
*600 FILLER_0_0_109
*601 FILLER_0_0_113
*602 FILLER_0_0_125
*603 FILLER_0_0_137
*604 FILLER_0_0_141
*605 FILLER_0_0_15
*606 FILLER_0_0_153
*607 FILLER_0_0_165
*608 FILLER_0_0_169
*609 FILLER_0_0_181
*610 FILLER_0_0_193
*611 FILLER_0_0_197
*612 FILLER_0_0_209
*613 FILLER_0_0_221
*614 FILLER_0_0_225
*615 FILLER_0_0_237
*616 FILLER_0_0_249
*617 FILLER_0_0_253
*618 FILLER_0_0_265
*619 FILLER_0_0_27
*620 FILLER_0_0_277
*621 FILLER_0_0_281
*622 FILLER_0_0_29
*623 FILLER_0_0_293
*624 FILLER_0_0_3
*625 FILLER_0_0_305
*626 FILLER_0_0_309
*627 FILLER_0_0_321
*628 FILLER_0_0_333
*629 FILLER_0_0_337
*630 FILLER_0_0_349
*631 FILLER_0_0_41
*632 FILLER_0_0_53
*633 FILLER_0_0_57
*634 FILLER_0_0_69
*635 FILLER_0_0_81
*636 FILLER_0_0_85
*637 FILLER_0_0_97
*638 FILLER_0_10_109
*639 FILLER_0_10_121
*640 FILLER_0_10_133
*641 FILLER_0_10_139
*642 FILLER_0_10_141
*643 FILLER_0_10_15
*644 FILLER_0_10_153
*645 FILLER_0_10_165
*646 FILLER_0_10_177
*647 FILLER_0_10_189
*648 FILLER_0_10_195
*649 FILLER_0_10_197
*650 FILLER_0_10_209
*651 FILLER_0_10_221
*652 FILLER_0_10_233
*653 FILLER_0_10_245
*654 FILLER_0_10_251
*655 FILLER_0_10_253
*656 FILLER_0_10_265
*657 FILLER_0_10_27
*658 FILLER_0_10_277
*659 FILLER_0_10_289
*660 FILLER_0_10_29
*661 FILLER_0_10_3
*662 FILLER_0_10_301
*663 FILLER_0_10_307
*664 FILLER_0_10_309
*665 FILLER_0_10_321
*666 FILLER_0_10_333
*667 FILLER_0_10_345
*668 FILLER_0_10_41
*669 FILLER_0_10_53
*670 FILLER_0_10_65
*671 FILLER_0_10_77
*672 FILLER_0_10_83
*673 FILLER_0_10_85
*674 FILLER_0_10_97
*675 FILLER_0_11_105
*676 FILLER_0_11_111
*677 FILLER_0_11_113
*678 FILLER_0_11_125
*679 FILLER_0_11_137
*680 FILLER_0_11_149
*681 FILLER_0_11_15
*682 FILLER_0_11_161
*683 FILLER_0_11_167
*684 FILLER_0_11_169
*685 FILLER_0_11_181
*686 FILLER_0_11_193
*687 FILLER_0_11_205
*688 FILLER_0_11_217
*689 FILLER_0_11_223
*690 FILLER_0_11_225
*691 FILLER_0_11_237
*692 FILLER_0_11_249
*693 FILLER_0_11_261
*694 FILLER_0_11_27
*695 FILLER_0_11_273
*696 FILLER_0_11_279
*697 FILLER_0_11_281
*698 FILLER_0_11_293
*699 FILLER_0_11_3
*700 FILLER_0_11_305
*701 FILLER_0_11_317
*702 FILLER_0_11_329
*703 FILLER_0_11_335
*704 FILLER_0_11_337
*705 FILLER_0_11_349
*706 FILLER_0_11_39
*707 FILLER_0_11_51
*708 FILLER_0_11_55
*709 FILLER_0_11_57
*710 FILLER_0_11_69
*711 FILLER_0_11_81
*712 FILLER_0_11_93
*713 FILLER_0_12_109
*714 FILLER_0_12_121
*715 FILLER_0_12_133
*716 FILLER_0_12_139
*717 FILLER_0_12_141
*718 FILLER_0_12_15
*719 FILLER_0_12_153
*720 FILLER_0_12_165
*721 FILLER_0_12_177
*722 FILLER_0_12_189
*723 FILLER_0_12_195
*724 FILLER_0_12_197
*725 FILLER_0_12_209
*726 FILLER_0_12_221
*727 FILLER_0_12_233
*728 FILLER_0_12_245
*729 FILLER_0_12_251
*730 FILLER_0_12_253
*731 FILLER_0_12_265
*732 FILLER_0_12_27
*733 FILLER_0_12_277
*734 FILLER_0_12_289
*735 FILLER_0_12_29
*736 FILLER_0_12_3
*737 FILLER_0_12_301
*738 FILLER_0_12_307
*739 FILLER_0_12_309
*740 FILLER_0_12_321
*741 FILLER_0_12_333
*742 FILLER_0_12_345
*743 FILLER_0_12_41
*744 FILLER_0_12_53
*745 FILLER_0_12_65
*746 FILLER_0_12_77
*747 FILLER_0_12_83
*748 FILLER_0_12_85
*749 FILLER_0_12_97
*750 FILLER_0_13_105
*751 FILLER_0_13_111
*752 FILLER_0_13_113
*753 FILLER_0_13_125
*754 FILLER_0_13_137
*755 FILLER_0_13_149
*756 FILLER_0_13_15
*757 FILLER_0_13_161
*758 FILLER_0_13_167
*759 FILLER_0_13_169
*760 FILLER_0_13_181
*761 FILLER_0_13_193
*762 FILLER_0_13_205
*763 FILLER_0_13_217
*764 FILLER_0_13_223
*765 FILLER_0_13_225
*766 FILLER_0_13_237
*767 FILLER_0_13_249
*768 FILLER_0_13_261
*769 FILLER_0_13_27
*770 FILLER_0_13_273
*771 FILLER_0_13_279
*772 FILLER_0_13_281
*773 FILLER_0_13_293
*774 FILLER_0_13_3
*775 FILLER_0_13_305
*776 FILLER_0_13_317
*777 FILLER_0_13_329
*778 FILLER_0_13_335
*779 FILLER_0_13_337
*780 FILLER_0_13_349
*781 FILLER_0_13_39
*782 FILLER_0_13_51
*783 FILLER_0_13_55
*784 FILLER_0_13_57
*785 FILLER_0_13_69
*786 FILLER_0_13_81
*787 FILLER_0_13_93
*788 FILLER_0_14_109
*789 FILLER_0_14_121
*790 FILLER_0_14_133
*791 FILLER_0_14_139
*792 FILLER_0_14_141
*793 FILLER_0_14_15
*794 FILLER_0_14_153
*795 FILLER_0_14_165
*796 FILLER_0_14_177
*797 FILLER_0_14_189
*798 FILLER_0_14_195
*799 FILLER_0_14_197
*800 FILLER_0_14_209
*801 FILLER_0_14_221
*802 FILLER_0_14_233
*803 FILLER_0_14_245
*804 FILLER_0_14_251
*805 FILLER_0_14_253
*806 FILLER_0_14_265
*807 FILLER_0_14_27
*808 FILLER_0_14_277
*809 FILLER_0_14_289
*810 FILLER_0_14_29
*811 FILLER_0_14_3
*812 FILLER_0_14_301
*813 FILLER_0_14_307
*814 FILLER_0_14_309
*815 FILLER_0_14_321
*816 FILLER_0_14_333
*817 FILLER_0_14_345
*818 FILLER_0_14_41
*819 FILLER_0_14_53
*820 FILLER_0_14_65
*821 FILLER_0_14_77
*822 FILLER_0_14_83
*823 FILLER_0_14_85
*824 FILLER_0_14_97
*825 FILLER_0_15_105
*826 FILLER_0_15_111
*827 FILLER_0_15_126
*828 FILLER_0_15_138
*829 FILLER_0_15_146
*830 FILLER_0_15_15
*831 FILLER_0_15_156
*832 FILLER_0_15_176
*833 FILLER_0_15_188
*834 FILLER_0_15_202
*835 FILLER_0_15_214
*836 FILLER_0_15_222
*837 FILLER_0_15_225
*838 FILLER_0_15_237
*839 FILLER_0_15_249
*840 FILLER_0_15_261
*841 FILLER_0_15_265
*842 FILLER_0_15_27
*843 FILLER_0_15_270
*844 FILLER_0_15_278
*845 FILLER_0_15_281
*846 FILLER_0_15_293
*847 FILLER_0_15_3
*848 FILLER_0_15_305
*849 FILLER_0_15_317
*850 FILLER_0_15_329
*851 FILLER_0_15_335
*852 FILLER_0_15_337
*853 FILLER_0_15_349
*854 FILLER_0_15_39
*855 FILLER_0_15_51
*856 FILLER_0_15_55
*857 FILLER_0_15_57
*858 FILLER_0_15_69
*859 FILLER_0_15_81
*860 FILLER_0_15_93
*861 FILLER_0_16_109
*862 FILLER_0_16_115
*863 FILLER_0_16_120
*864 FILLER_0_16_132
*865 FILLER_0_16_148
*866 FILLER_0_16_15
*867 FILLER_0_16_160
*868 FILLER_0_16_176
*869 FILLER_0_16_192
*870 FILLER_0_16_208
*871 FILLER_0_16_220
*872 FILLER_0_16_228
*873 FILLER_0_16_238
*874 FILLER_0_16_242
*875 FILLER_0_16_250
*876 FILLER_0_16_253
*877 FILLER_0_16_261
*878 FILLER_0_16_27
*879 FILLER_0_16_276
*880 FILLER_0_16_284
*881 FILLER_0_16_29
*882 FILLER_0_16_3
*883 FILLER_0_16_305
*884 FILLER_0_16_315
*885 FILLER_0_16_327
*886 FILLER_0_16_339
*887 FILLER_0_16_41
*888 FILLER_0_16_53
*889 FILLER_0_16_65
*890 FILLER_0_16_77
*891 FILLER_0_16_83
*892 FILLER_0_16_85
*893 FILLER_0_16_97
*894 FILLER_0_17_102
*895 FILLER_0_17_110
*896 FILLER_0_17_113
*897 FILLER_0_17_121
*898 FILLER_0_17_133
*899 FILLER_0_17_15
*900 FILLER_0_17_152
*901 FILLER_0_17_156
*902 FILLER_0_17_160
*903 FILLER_0_17_169
*904 FILLER_0_17_181
*905 FILLER_0_17_196
*906 FILLER_0_17_204
*907 FILLER_0_17_223
*908 FILLER_0_17_225
*909 FILLER_0_17_234
*910 FILLER_0_17_246
*911 FILLER_0_17_258
*912 FILLER_0_17_27
*913 FILLER_0_17_270
*914 FILLER_0_17_278
*915 FILLER_0_17_281
*916 FILLER_0_17_296
*917 FILLER_0_17_3
*918 FILLER_0_17_308
*919 FILLER_0_17_323
*920 FILLER_0_17_335
*921 FILLER_0_17_337
*922 FILLER_0_17_349
*923 FILLER_0_17_39
*924 FILLER_0_17_51
*925 FILLER_0_17_55
*926 FILLER_0_17_57
*927 FILLER_0_17_69
*928 FILLER_0_17_81
*929 FILLER_0_17_87
*930 FILLER_0_18_105
*931 FILLER_0_18_120
*932 FILLER_0_18_129
*933 FILLER_0_18_137
*934 FILLER_0_18_141
*935 FILLER_0_18_15
*936 FILLER_0_18_153
*937 FILLER_0_18_175
*938 FILLER_0_18_187
*939 FILLER_0_18_195
*940 FILLER_0_18_213
*941 FILLER_0_18_221
*942 FILLER_0_18_237
*943 FILLER_0_18_250
*944 FILLER_0_18_260
*945 FILLER_0_18_27
*946 FILLER_0_18_278
*947 FILLER_0_18_29
*948 FILLER_0_18_3
*949 FILLER_0_18_300
*950 FILLER_0_18_309
*951 FILLER_0_18_326
*952 FILLER_0_18_338
*953 FILLER_0_18_350
*954 FILLER_0_18_41
*955 FILLER_0_18_53
*956 FILLER_0_18_65
*957 FILLER_0_18_77
*958 FILLER_0_18_83
*959 FILLER_0_18_85
*960 FILLER_0_18_99
*961 FILLER_0_19_101
*962 FILLER_0_19_105
*963 FILLER_0_19_111
*964 FILLER_0_19_113
*965 FILLER_0_19_120
*966 FILLER_0_19_129
*967 FILLER_0_19_141
*968 FILLER_0_19_15
*969 FILLER_0_19_158
*970 FILLER_0_19_166
*971 FILLER_0_19_190
*972 FILLER_0_19_194
*973 FILLER_0_19_198
*974 FILLER_0_19_218
*975 FILLER_0_19_235
*976 FILLER_0_19_247
*977 FILLER_0_19_254
*978 FILLER_0_19_266
*979 FILLER_0_19_27
*980 FILLER_0_19_278
*981 FILLER_0_19_281
*982 FILLER_0_19_293
*983 FILLER_0_19_3
*984 FILLER_0_19_301
*985 FILLER_0_19_321
*986 FILLER_0_19_333
*987 FILLER_0_19_337
*988 FILLER_0_19_349
*989 FILLER_0_19_39
*990 FILLER_0_19_51
*991 FILLER_0_19_55
*992 FILLER_0_19_57
*993 FILLER_0_19_69
*994 FILLER_0_19_91
*995 FILLER_0_1_105
*996 FILLER_0_1_111
*997 FILLER_0_1_113
*998 FILLER_0_1_125
*999 FILLER_0_1_137
*1000 FILLER_0_1_149
*1001 FILLER_0_1_15
*1002 FILLER_0_1_161
*1003 FILLER_0_1_167
*1004 FILLER_0_1_169
*1005 FILLER_0_1_181
*1006 FILLER_0_1_193
*1007 FILLER_0_1_205
*1008 FILLER_0_1_217
*1009 FILLER_0_1_223
*1010 FILLER_0_1_225
*1011 FILLER_0_1_237
*1012 FILLER_0_1_249
*1013 FILLER_0_1_261
*1014 FILLER_0_1_27
*1015 FILLER_0_1_273
*1016 FILLER_0_1_279
*1017 FILLER_0_1_281
*1018 FILLER_0_1_293
*1019 FILLER_0_1_3
*1020 FILLER_0_1_305
*1021 FILLER_0_1_317
*1022 FILLER_0_1_329
*1023 FILLER_0_1_335
*1024 FILLER_0_1_337
*1025 FILLER_0_1_349
*1026 FILLER_0_1_39
*1027 FILLER_0_1_51
*1028 FILLER_0_1_55
*1029 FILLER_0_1_57
*1030 FILLER_0_1_69
*1031 FILLER_0_1_81
*1032 FILLER_0_1_93
*1033 FILLER_0_20_109
*1034 FILLER_0_20_115
*1035 FILLER_0_20_126
*1036 FILLER_0_20_138
*1037 FILLER_0_20_15
*1038 FILLER_0_20_150
*1039 FILLER_0_20_156
*1040 FILLER_0_20_171
*1041 FILLER_0_20_177
*1042 FILLER_0_20_181
*1043 FILLER_0_20_189
*1044 FILLER_0_20_205
*1045 FILLER_0_20_218
*1046 FILLER_0_20_228
*1047 FILLER_0_20_235
*1048 FILLER_0_20_253
*1049 FILLER_0_20_265
*1050 FILLER_0_20_27
*1051 FILLER_0_20_282
*1052 FILLER_0_20_29
*1053 FILLER_0_20_296
*1054 FILLER_0_20_3
*1055 FILLER_0_20_305
*1056 FILLER_0_20_309
*1057 FILLER_0_20_313
*1058 FILLER_0_20_322
*1059 FILLER_0_20_328
*1060 FILLER_0_20_348
*1061 FILLER_0_20_41
*1062 FILLER_0_20_64
*1063 FILLER_0_20_72
*1064 FILLER_0_20_83
*1065 FILLER_0_20_85
*1066 FILLER_0_20_97
*1067 FILLER_0_21_104
*1068 FILLER_0_21_113
*1069 FILLER_0_21_118
*1070 FILLER_0_21_130
*1071 FILLER_0_21_137
*1072 FILLER_0_21_15
*1073 FILLER_0_21_150
*1074 FILLER_0_21_158
*1075 FILLER_0_21_164
*1076 FILLER_0_21_169
*1077 FILLER_0_21_182
*1078 FILLER_0_21_193
*1079 FILLER_0_21_205
*1080 FILLER_0_21_213
*1081 FILLER_0_21_220
*1082 FILLER_0_21_225
*1083 FILLER_0_21_232
*1084 FILLER_0_21_238
*1085 FILLER_0_21_242
*1086 FILLER_0_21_254
*1087 FILLER_0_21_266
*1088 FILLER_0_21_27
*1089 FILLER_0_21_273
*1090 FILLER_0_21_279
*1091 FILLER_0_21_281
*1092 FILLER_0_21_293
*1093 FILLER_0_21_3
*1094 FILLER_0_21_300
*1095 FILLER_0_21_312
*1096 FILLER_0_21_321
*1097 FILLER_0_21_337
*1098 FILLER_0_21_349
*1099 FILLER_0_21_36
*1100 FILLER_0_21_48
*1101 FILLER_0_21_63
*1102 FILLER_0_21_78
*1103 FILLER_0_21_97
*1104 FILLER_0_22_113
*1105 FILLER_0_22_126
*1106 FILLER_0_22_138
*1107 FILLER_0_22_141
*1108 FILLER_0_22_15
*1109 FILLER_0_22_153
*1110 FILLER_0_22_161
*1111 FILLER_0_22_172
*1112 FILLER_0_22_184
*1113 FILLER_0_22_204
*1114 FILLER_0_22_221
*1115 FILLER_0_22_230
*1116 FILLER_0_22_238
*1117 FILLER_0_22_250
*1118 FILLER_0_22_27
*1119 FILLER_0_22_286
*1120 FILLER_0_22_29
*1121 FILLER_0_22_294
*1122 FILLER_0_22_299
*1123 FILLER_0_22_3
*1124 FILLER_0_22_307
*1125 FILLER_0_22_309
*1126 FILLER_0_22_322
*1127 FILLER_0_22_326
*1128 FILLER_0_22_337
*1129 FILLER_0_22_349
*1130 FILLER_0_22_47
*1131 FILLER_0_22_56
*1132 FILLER_0_22_62
*1133 FILLER_0_22_69
*1134 FILLER_0_22_81
*1135 FILLER_0_22_85
*1136 FILLER_0_23_109
*1137 FILLER_0_23_113
*1138 FILLER_0_23_128
*1139 FILLER_0_23_149
*1140 FILLER_0_23_15
*1141 FILLER_0_23_155
*1142 FILLER_0_23_162
*1143 FILLER_0_23_176
*1144 FILLER_0_23_180
*1145 FILLER_0_23_188
*1146 FILLER_0_23_200
*1147 FILLER_0_23_212
*1148 FILLER_0_23_220
*1149 FILLER_0_23_225
*1150 FILLER_0_23_233
*1151 FILLER_0_23_244
*1152 FILLER_0_23_256
*1153 FILLER_0_23_268
*1154 FILLER_0_23_27
*1155 FILLER_0_23_281
*1156 FILLER_0_23_3
*1157 FILLER_0_23_310
*1158 FILLER_0_23_328
*1159 FILLER_0_23_348
*1160 FILLER_0_23_36
*1161 FILLER_0_23_55
*1162 FILLER_0_23_57
*1163 FILLER_0_23_69
*1164 FILLER_0_23_89
*1165 FILLER_0_23_97
*1166 FILLER_0_24_101
*1167 FILLER_0_24_115
*1168 FILLER_0_24_127
*1169 FILLER_0_24_139
*1170 FILLER_0_24_147
*1171 FILLER_0_24_15
*1172 FILLER_0_24_159
*1173 FILLER_0_24_174
*1174 FILLER_0_24_182
*1175 FILLER_0_24_214
*1176 FILLER_0_24_222
*1177 FILLER_0_24_23
*1178 FILLER_0_24_251
*1179 FILLER_0_24_253
*1180 FILLER_0_24_262
*1181 FILLER_0_24_270
*1182 FILLER_0_24_283
*1183 FILLER_0_24_295
*1184 FILLER_0_24_3
*1185 FILLER_0_24_307
*1186 FILLER_0_24_309
*1187 FILLER_0_24_317
*1188 FILLER_0_24_331
*1189 FILLER_0_24_343
*1190 FILLER_0_24_46
*1191 FILLER_0_24_52
*1192 FILLER_0_24_76
*1193 FILLER_0_24_89
*1194 FILLER_0_25_113
*1195 FILLER_0_25_128
*1196 FILLER_0_25_148
*1197 FILLER_0_25_15
*1198 FILLER_0_25_157
*1199 FILLER_0_25_164
*1200 FILLER_0_25_169
*1201 FILLER_0_25_185
*1202 FILLER_0_25_197
*1203 FILLER_0_25_212
*1204 FILLER_0_25_223
*1205 FILLER_0_25_23
*1206 FILLER_0_25_233
*1207 FILLER_0_25_247
*1208 FILLER_0_25_257
*1209 FILLER_0_25_269
*1210 FILLER_0_25_276
*1211 FILLER_0_25_293
*1212 FILLER_0_25_3
*1213 FILLER_0_25_306
*1214 FILLER_0_25_321
*1215 FILLER_0_25_333
*1216 FILLER_0_25_337
*1217 FILLER_0_25_347
*1218 FILLER_0_25_37
*1219 FILLER_0_25_45
*1220 FILLER_0_25_57
*1221 FILLER_0_25_70
*1222 FILLER_0_25_92
*1223 FILLER_0_25_98
*1224 FILLER_0_26_106
*1225 FILLER_0_26_117
*1226 FILLER_0_26_137
*1227 FILLER_0_26_141
*1228 FILLER_0_26_156
*1229 FILLER_0_26_164
*1230 FILLER_0_26_171
*1231 FILLER_0_26_184
*1232 FILLER_0_26_206
*1233 FILLER_0_26_210
*1234 FILLER_0_26_22
*1235 FILLER_0_26_220
*1236 FILLER_0_26_246
*1237 FILLER_0_26_256
*1238 FILLER_0_26_266
*1239 FILLER_0_26_278
*1240 FILLER_0_26_290
*1241 FILLER_0_26_3
*1242 FILLER_0_26_303
*1243 FILLER_0_26_307
*1244 FILLER_0_26_309
*1245 FILLER_0_26_324
*1246 FILLER_0_26_34
*1247 FILLER_0_26_345
*1248 FILLER_0_26_72
*1249 FILLER_0_26_85
*1250 FILLER_0_27_102
*1251 FILLER_0_27_106
*1252 FILLER_0_27_113
*1253 FILLER_0_27_126
*1254 FILLER_0_27_138
*1255 FILLER_0_27_165
*1256 FILLER_0_27_177
*1257 FILLER_0_27_199
*1258 FILLER_0_27_216
*1259 FILLER_0_27_245
*1260 FILLER_0_27_251
*1261 FILLER_0_27_26
*1262 FILLER_0_27_261
*1263 FILLER_0_27_273
*1264 FILLER_0_27_279
*1265 FILLER_0_27_290
*1266 FILLER_0_27_3
*1267 FILLER_0_27_303
*1268 FILLER_0_27_314
*1269 FILLER_0_27_321
*1270 FILLER_0_27_327
*1271 FILLER_0_27_334
*1272 FILLER_0_27_34
*1273 FILLER_0_27_341
*1274 FILLER_0_27_349
*1275 FILLER_0_27_42
*1276 FILLER_0_27_54
*1277 FILLER_0_27_57
*1278 FILLER_0_27_61
*1279 FILLER_0_27_79
*1280 FILLER_0_27_83
*1281 FILLER_0_28_103
*1282 FILLER_0_28_111
*1283 FILLER_0_28_122
*1284 FILLER_0_28_134
*1285 FILLER_0_28_141
*1286 FILLER_0_28_156
*1287 FILLER_0_28_191
*1288 FILLER_0_28_195
*1289 FILLER_0_28_21
*1290 FILLER_0_28_215
*1291 FILLER_0_28_227
*1292 FILLER_0_28_251
*1293 FILLER_0_28_29
*1294 FILLER_0_28_298
*1295 FILLER_0_28_3
*1296 FILLER_0_28_306
*1297 FILLER_0_28_318
*1298 FILLER_0_28_334
*1299 FILLER_0_28_39
*1300 FILLER_0_28_47
*1301 FILLER_0_28_57
*1302 FILLER_0_28_70
*1303 FILLER_0_28_81
*1304 FILLER_0_28_85
*1305 FILLER_0_28_93
*1306 FILLER_0_29_108
*1307 FILLER_0_29_113
*1308 FILLER_0_29_12
*1309 FILLER_0_29_128
*1310 FILLER_0_29_140
*1311 FILLER_0_29_153
*1312 FILLER_0_29_165
*1313 FILLER_0_29_178
*1314 FILLER_0_29_191
*1315 FILLER_0_29_199
*1316 FILLER_0_29_218
*1317 FILLER_0_29_24
*1318 FILLER_0_29_251
*1319 FILLER_0_29_260
*1320 FILLER_0_29_272
*1321 FILLER_0_29_290
*1322 FILLER_0_29_3
*1323 FILLER_0_29_302
*1324 FILLER_0_29_310
*1325 FILLER_0_29_325
*1326 FILLER_0_29_340
*1327 FILLER_0_29_35
*1328 FILLER_0_29_41
*1329 FILLER_0_29_82
*1330 FILLER_0_29_94
*1331 FILLER_0_2_109
*1332 FILLER_0_2_121
*1333 FILLER_0_2_133
*1334 FILLER_0_2_139
*1335 FILLER_0_2_141
*1336 FILLER_0_2_15
*1337 FILLER_0_2_153
*1338 FILLER_0_2_165
*1339 FILLER_0_2_177
*1340 FILLER_0_2_189
*1341 FILLER_0_2_195
*1342 FILLER_0_2_197
*1343 FILLER_0_2_209
*1344 FILLER_0_2_221
*1345 FILLER_0_2_233
*1346 FILLER_0_2_245
*1347 FILLER_0_2_251
*1348 FILLER_0_2_253
*1349 FILLER_0_2_265
*1350 FILLER_0_2_27
*1351 FILLER_0_2_277
*1352 FILLER_0_2_289
*1353 FILLER_0_2_29
*1354 FILLER_0_2_3
*1355 FILLER_0_2_301
*1356 FILLER_0_2_307
*1357 FILLER_0_2_309
*1358 FILLER_0_2_321
*1359 FILLER_0_2_333
*1360 FILLER_0_2_345
*1361 FILLER_0_2_41
*1362 FILLER_0_2_53
*1363 FILLER_0_2_65
*1364 FILLER_0_2_77
*1365 FILLER_0_2_83
*1366 FILLER_0_2_85
*1367 FILLER_0_2_97
*1368 FILLER_0_30_117
*1369 FILLER_0_30_128
*1370 FILLER_0_30_141
*1371 FILLER_0_30_151
*1372 FILLER_0_30_155
*1373 FILLER_0_30_159
*1374 FILLER_0_30_171
*1375 FILLER_0_30_195
*1376 FILLER_0_30_197
*1377 FILLER_0_30_203
*1378 FILLER_0_30_213
*1379 FILLER_0_30_22
*1380 FILLER_0_30_222
*1381 FILLER_0_30_243
*1382 FILLER_0_30_253
*1383 FILLER_0_30_275
*1384 FILLER_0_30_286
*1385 FILLER_0_30_3
*1386 FILLER_0_30_350
*1387 FILLER_0_30_36
*1388 FILLER_0_30_40
*1389 FILLER_0_30_46
*1390 FILLER_0_30_61
*1391 FILLER_0_30_70
*1392 FILLER_0_30_74
*1393 FILLER_0_30_82
*1394 FILLER_0_30_85
*1395 FILLER_0_31_102
*1396 FILLER_0_31_113
*1397 FILLER_0_31_117
*1398 FILLER_0_31_127
*1399 FILLER_0_31_15
*1400 FILLER_0_31_158
*1401 FILLER_0_31_166
*1402 FILLER_0_31_193
*1403 FILLER_0_31_201
*1404 FILLER_0_31_209
*1405 FILLER_0_31_221
*1406 FILLER_0_31_23
*1407 FILLER_0_31_249
*1408 FILLER_0_31_261
*1409 FILLER_0_31_273
*1410 FILLER_0_31_297
*1411 FILLER_0_31_3
*1412 FILLER_0_31_309
*1413 FILLER_0_31_321
*1414 FILLER_0_31_337
*1415 FILLER_0_31_39
*1416 FILLER_0_31_53
*1417 FILLER_0_31_57
*1418 FILLER_0_31_73
*1419 FILLER_0_31_79
*1420 FILLER_0_31_98
*1421 FILLER_0_32_106
*1422 FILLER_0_32_114
*1423 FILLER_0_32_124
*1424 FILLER_0_32_133
*1425 FILLER_0_32_139
*1426 FILLER_0_32_152
*1427 FILLER_0_32_162
*1428 FILLER_0_32_171
*1429 FILLER_0_32_182
*1430 FILLER_0_32_194
*1431 FILLER_0_32_197
*1432 FILLER_0_32_201
*1433 FILLER_0_32_213
*1434 FILLER_0_32_221
*1435 FILLER_0_32_231
*1436 FILLER_0_32_247
*1437 FILLER_0_32_251
*1438 FILLER_0_32_256
*1439 FILLER_0_32_277
*1440 FILLER_0_32_284
*1441 FILLER_0_32_29
*1442 FILLER_0_32_3
*1443 FILLER_0_32_306
*1444 FILLER_0_32_325
*1445 FILLER_0_32_37
*1446 FILLER_0_32_47
*1447 FILLER_0_32_59
*1448 FILLER_0_32_78
*1449 FILLER_0_32_85
*1450 FILLER_0_32_89
*1451 FILLER_0_32_98
*1452 FILLER_0_33_113
*1453 FILLER_0_33_119
*1454 FILLER_0_33_126
*1455 FILLER_0_33_140
*1456 FILLER_0_33_15
*1457 FILLER_0_33_150
*1458 FILLER_0_33_167
*1459 FILLER_0_33_178
*1460 FILLER_0_33_182
*1461 FILLER_0_33_190
*1462 FILLER_0_33_197
*1463 FILLER_0_33_214
*1464 FILLER_0_33_223
*1465 FILLER_0_33_232
*1466 FILLER_0_33_251
*1467 FILLER_0_33_27
*1468 FILLER_0_33_270
*1469 FILLER_0_33_276
*1470 FILLER_0_33_281
*1471 FILLER_0_33_289
*1472 FILLER_0_33_295
*1473 FILLER_0_33_299
*1474 FILLER_0_33_3
*1475 FILLER_0_33_317
*1476 FILLER_0_33_329
*1477 FILLER_0_33_335
*1478 FILLER_0_33_337
*1479 FILLER_0_33_349
*1480 FILLER_0_33_39
*1481 FILLER_0_33_57
*1482 FILLER_0_33_65
*1483 FILLER_0_33_71
*1484 FILLER_0_33_81
*1485 FILLER_0_33_86
*1486 FILLER_0_34_105
*1487 FILLER_0_34_138
*1488 FILLER_0_34_141
*1489 FILLER_0_34_15
*1490 FILLER_0_34_162
*1491 FILLER_0_34_174
*1492 FILLER_0_34_197
*1493 FILLER_0_34_243
*1494 FILLER_0_34_251
*1495 FILLER_0_34_27
*1496 FILLER_0_34_271
*1497 FILLER_0_34_29
*1498 FILLER_0_34_298
*1499 FILLER_0_34_3
*1500 FILLER_0_34_306
*1501 FILLER_0_34_315
*1502 FILLER_0_34_322
*1503 FILLER_0_34_339
*1504 FILLER_0_34_41
*1505 FILLER_0_34_48
*1506 FILLER_0_34_60
*1507 FILLER_0_35_111
*1508 FILLER_0_35_116
*1509 FILLER_0_35_128
*1510 FILLER_0_35_146
*1511 FILLER_0_35_15
*1512 FILLER_0_35_165
*1513 FILLER_0_35_186
*1514 FILLER_0_35_192
*1515 FILLER_0_35_213
*1516 FILLER_0_35_221
*1517 FILLER_0_35_225
*1518 FILLER_0_35_229
*1519 FILLER_0_35_244
*1520 FILLER_0_35_250
*1521 FILLER_0_35_268
*1522 FILLER_0_35_27
*1523 FILLER_0_35_281
*1524 FILLER_0_35_289
*1525 FILLER_0_35_3
*1526 FILLER_0_35_329
*1527 FILLER_0_35_335
*1528 FILLER_0_35_337
*1529 FILLER_0_35_349
*1530 FILLER_0_35_39
*1531 FILLER_0_35_51
*1532 FILLER_0_35_55
*1533 FILLER_0_35_57
*1534 FILLER_0_35_63
*1535 FILLER_0_35_83
*1536 FILLER_0_35_96
*1537 FILLER_0_36_111
*1538 FILLER_0_36_128
*1539 FILLER_0_36_141
*1540 FILLER_0_36_15
*1541 FILLER_0_36_153
*1542 FILLER_0_36_174
*1543 FILLER_0_36_197
*1544 FILLER_0_36_209
*1545 FILLER_0_36_221
*1546 FILLER_0_36_227
*1547 FILLER_0_36_231
*1548 FILLER_0_36_239
*1549 FILLER_0_36_251
*1550 FILLER_0_36_256
*1551 FILLER_0_36_267
*1552 FILLER_0_36_27
*1553 FILLER_0_36_286
*1554 FILLER_0_36_29
*1555 FILLER_0_36_298
*1556 FILLER_0_36_3
*1557 FILLER_0_36_306
*1558 FILLER_0_36_312
*1559 FILLER_0_36_324
*1560 FILLER_0_36_41
*1561 FILLER_0_36_53
*1562 FILLER_0_36_65
*1563 FILLER_0_36_77
*1564 FILLER_0_36_83
*1565 FILLER_0_36_85
*1566 FILLER_0_36_91
*1567 FILLER_0_37_103
*1568 FILLER_0_37_111
*1569 FILLER_0_37_113
*1570 FILLER_0_37_120
*1571 FILLER_0_37_128
*1572 FILLER_0_37_141
*1573 FILLER_0_37_145
*1574 FILLER_0_37_15
*1575 FILLER_0_37_163
*1576 FILLER_0_37_167
*1577 FILLER_0_37_222
*1578 FILLER_0_37_257
*1579 FILLER_0_37_27
*1580 FILLER_0_37_281
*1581 FILLER_0_37_3
*1582 FILLER_0_37_305
*1583 FILLER_0_37_349
*1584 FILLER_0_37_39
*1585 FILLER_0_37_51
*1586 FILLER_0_37_55
*1587 FILLER_0_37_57
*1588 FILLER_0_37_69
*1589 FILLER_0_37_81
*1590 FILLER_0_38_104
*1591 FILLER_0_38_110
*1592 FILLER_0_38_116
*1593 FILLER_0_38_122
*1594 FILLER_0_38_128
*1595 FILLER_0_38_141
*1596 FILLER_0_38_146
*1597 FILLER_0_38_15
*1598 FILLER_0_38_152
*1599 FILLER_0_38_158
*1600 FILLER_0_38_166
*1601 FILLER_0_38_169
*1602 FILLER_0_38_181
*1603 FILLER_0_38_192
*1604 FILLER_0_38_197
*1605 FILLER_0_38_205
*1606 FILLER_0_38_217