*SPEF "ieee 1481-1999"
*DESIGN "tt_um_mvm_"
*DATE "11:11:11 Fri 11 11, 1111"
*VENDOR "OpenRCX"
*PROGRAM "Parallel Extraction"
*VERSION "1.0"
*DESIGN_FLOW "NAME_SCOPE LOCAL" "PIN_CAP NONE"
*DIVIDER /
*DELIMITER :
*BUS_DELIMITER []
*T_UNIT 1 NS
*C_UNIT 1 PF
*R_UNIT 1 OHM
*L_UNIT 1 HENRY

*NAME_MAP
*3 clk
*4 ena
*5 rst_n
*6 ui_in[0]
*7 ui_in[1]
*8 ui_in[2]
*9 ui_in[3]
*10 ui_in[4]
*11 ui_in[5]
*12 ui_in[6]
*13 ui_in[7]
*14 uio_in[0]
*15 uio_in[1]
*16 uio_in[2]
*17 uio_in[3]
*18 uio_in[4]
*19 uio_in[5]
*20 uio_in[6]
*21 uio_in[7]
*22 net33
*23 net34
*24 net21
*25 net22
*26 net23
*27 net24
*28 net25
*29 net26
*30 uio_out[0]
*31 uio_out[1]
*32 net27
*33 net28
*34 net29
*35 net30
*36 net31
*37 net32
*38 uo_out[0]
*39 uo_out[1]
*40 uo_out[2]
*41 uo_out[3]
*42 uo_out[4]
*43 uo_out[5]
*44 uo_out[6]
*45 uo_out[7]
*46 _0000_
*47 _0001_
*48 _0002_
*49 _0003_
*50 _0004_
*51 _0005_
*52 _0006_
*53 _0007_
*54 _0008_
*55 _0009_
*56 _0010_
*57 _0011_
*58 _0012_
*59 _0013_
*60 _0014_
*61 _0015_
*62 _0016_
*63 _0017_
*64 _0018_
*65 _0019_
*66 _0020_
*67 _0021_
*68 _0022_
*69 _0023_
*70 _0024_
*71 _0025_
*72 _0026_
*73 _0027_
*74 _0028_
*75 _0029_
*76 _0030_
*77 _0031_
*78 _0032_
*79 _0033_
*80 _0034_
*81 _0035_
*82 _0036_
*83 _0037_
*84 _0038_
*85 _0039_
*86 _0040_
*87 _0041_
*88 _0042_
*89 _0043_
*90 _0044_
*91 _0045_
*92 _0046_
*93 _0047_
*94 _0048_
*95 _0049_
*96 _0050_
*97 _0051_
*98 _0052_
*99 _0053_
*100 _0054_
*101 _0055_
*102 _0056_
*103 _0057_
*104 _0058_
*105 _0059_
*106 _0060_
*107 _0061_
*108 _0062_
*109 _0063_
*110 _0064_
*111 _0065_
*112 _0066_
*113 _0067_
*114 _0068_
*115 _0069_
*116 _0070_
*117 _0071_
*118 _0072_
*119 _0073_
*120 _0074_
*121 _0075_
*122 _0076_
*123 _0077_
*124 _0078_
*125 _0079_
*126 _0080_
*127 _0081_
*128 _0082_
*129 _0083_
*130 _0084_
*131 _0085_
*132 _0086_
*133 _0087_
*134 _0088_
*135 _0089_
*136 _0090_
*137 _0091_
*138 _0092_
*139 _0093_
*140 _0094_
*141 _0095_
*142 _0096_
*143 _0097_
*144 _0098_
*145 _0099_
*146 _0100_
*147 _0101_
*148 _0102_
*149 _0103_
*150 _0104_
*151 _0105_
*152 _0106_
*153 _0107_
*154 _0108_
*155 _0109_
*156 _0110_
*157 _0111_
*158 _0112_
*159 _0113_
*160 _0114_
*161 _0115_
*162 _0116_
*163 _0117_
*164 _0118_
*165 _0119_
*166 _0120_
*167 _0121_
*168 _0122_
*169 _0123_
*170 _0124_
*171 _0125_
*172 _0126_
*173 _0127_
*174 _0128_
*175 _0129_
*176 _0130_
*177 _0131_
*178 _0132_
*179 _0133_
*180 _0134_
*181 _0135_
*182 _0136_
*183 _0137_
*184 _0138_
*185 _0139_
*186 _0140_
*187 _0141_
*188 _0142_
*189 _0143_
*190 _0144_
*191 _0145_
*192 _0146_
*193 _0147_
*194 _0148_
*195 _0149_
*196 _0150_
*197 _0151_
*198 _0152_
*199 _0153_
*200 _0154_
*201 _0155_
*202 _0156_
*203 _0157_
*204 _0158_
*205 _0159_
*206 _0160_
*207 _0161_
*208 _0162_
*209 _0163_
*210 _0164_
*211 _0165_
*212 _0166_
*213 _0167_
*214 _0168_
*215 _0169_
*216 _0170_
*217 _0171_
*218 _0172_
*219 _0173_
*220 _0174_
*221 _0175_
*222 _0176_
*223 _0177_
*224 _0178_
*225 _0179_
*226 _0180_
*227 _0181_
*228 _0182_
*229 _0183_
*230 _0184_
*231 _0185_
*232 _0186_
*233 _0187_
*234 _0188_
*235 _0189_
*236 _0190_
*237 _0191_
*238 _0192_
*239 _0193_
*240 _0194_
*241 _0195_
*242 _0196_
*243 _0197_
*244 _0198_
*245 _0199_
*246 _0200_
*247 _0201_
*248 _0202_
*249 _0203_
*250 _0204_
*251 _0205_
*252 _0206_
*253 _0207_
*254 _0208_
*255 _0209_
*256 _0210_
*257 _0211_
*258 _0212_
*259 _0213_
*260 _0214_
*261 _0215_
*262 _0216_
*263 _0217_
*264 _0218_
*265 _0219_
*266 _0220_
*267 _0221_
*268 _0222_
*269 _0223_
*270 _0224_
*271 _0225_
*272 _0226_
*273 _0227_
*274 _0228_
*275 _0229_
*276 _0230_
*277 _0231_
*278 _0232_
*279 _0233_
*280 _0234_
*281 _0235_
*282 _0236_
*283 _0237_
*284 _0238_
*285 _0239_
*286 _0240_
*287 _0241_
*288 _0242_
*289 _0243_
*290 _0244_
*291 _0245_
*292 _0246_
*293 _0247_
*294 _0248_
*295 _0249_
*296 _0250_
*297 _0251_
*298 _0252_
*299 _0253_
*300 _0254_
*301 _0255_
*302 _0256_
*303 _0257_
*304 _0258_
*305 _0259_
*306 _0260_
*307 _0261_
*308 _0262_
*309 _0263_
*310 _0264_
*311 _0265_
*312 _0266_
*313 _0267_
*314 _0268_
*315 _0269_
*316 _0270_
*317 _0271_
*318 _0272_
*319 _0273_
*320 _0274_
*321 _0275_
*322 _0276_
*323 _0277_
*324 _0278_
*325 _0279_
*326 _0280_
*327 _0281_
*328 _0282_
*329 _0283_
*330 _0284_
*331 _0285_
*332 _0286_
*333 _0287_
*334 _0288_
*335 _0289_
*336 _0290_
*337 _0291_
*338 _0292_
*339 _0293_
*340 _0294_
*341 _0295_
*342 _0296_
*343 _0297_
*344 _0298_
*345 _0299_
*346 _0300_
*347 _0301_
*348 _0302_
*349 _0303_
*350 _0304_
*351 _0305_
*352 _0306_
*353 _0307_
*354 _0308_
*355 _0309_
*356 _0310_
*357 _0311_
*358 _0312_
*359 _0313_
*360 _0314_
*361 _0315_
*362 _0316_
*363 _0317_
*364 _0318_
*365 _0319_
*366 _0320_
*367 _0321_
*368 _0322_
*369 _0323_
*370 _0324_
*371 _0325_
*372 _0326_
*373 _0327_
*374 _0328_
*375 _0329_
*376 _0330_
*377 _0331_
*378 _0332_
*379 _0333_
*380 _0334_
*381 _0335_
*382 _0336_
*383 _0337_
*384 _0338_
*385 _0339_
*386 _0340_
*387 _0341_
*388 _0342_
*389 _0343_
*390 _0344_
*391 _0345_
*392 _0346_
*393 _0347_
*394 _0348_
*395 _0349_
*396 _0350_
*397 _0351_
*398 _0352_
*399 _0353_
*400 _0354_
*401 _0355_
*402 _0356_
*403 _0357_
*404 _0358_
*405 _0359_
*406 _0360_
*407 _0361_
*408 _0362_
*409 _0363_
*410 _0364_
*411 _0365_
*412 _0366_
*413 _0367_
*414 _0368_
*415 _0369_
*416 _0370_
*417 _0371_
*418 _0372_
*419 _0373_
*420 _0374_
*421 _0375_
*422 _0376_
*423 _0377_
*424 _0378_
*425 _0379_
*426 _0380_
*427 _0381_
*428 _0382_
*429 _0383_
*430 _0384_
*431 _0385_
*432 _0386_
*433 _0387_
*434 _0388_
*435 _0389_
*436 _0390_
*437 _0391_
*438 _0392_
*439 _0393_
*440 _0394_
*441 _0395_
*442 _0396_
*443 _0397_
*444 _0398_
*445 _0399_
*446 _0400_
*447 _0401_
*448 _0402_
*449 _0403_
*450 _0404_
*451 _0405_
*452 _0406_
*453 _0407_
*454 _0408_
*455 _0409_
*456 _0410_
*457 _0411_
*458 _0412_
*459 _0413_
*460 _0414_
*461 _0415_
*462 _0416_
*463 _0417_
*464 _0418_
*465 _0419_
*466 _0420_
*467 _0421_
*468 _0422_
*469 _0423_
*470 _0424_
*471 _0425_
*472 _0426_
*473 _0427_
*474 _0428_
*475 _0429_
*476 _0430_
*477 _0431_
*478 _0432_
*479 _0433_
*480 _0434_
*481 _0435_
*482 _0436_
*483 _0437_
*484 _0438_
*485 _0439_
*486 _0440_
*487 _0441_
*488 _0442_
*489 _0443_
*490 _0444_
*491 _0445_
*492 _0446_
*493 _0447_
*494 _0448_
*495 _0449_
*496 _0450_
*497 _0451_
*498 _0452_
*499 _0453_
*500 _0454_
*501 _0455_
*502 _0456_
*503 _0457_
*504 _0458_
*505 _0459_
*506 _0460_
*507 _0461_
*508 _0462_
*509 _0463_
*510 _0464_
*511 _0465_
*512 _0466_
*513 _0467_
*514 _0468_
*515 _0469_
*516 _0470_
*517 _0471_
*518 _0472_
*519 _0473_
*520 _0474_
*521 _0475_
*522 _0476_
*523 _0477_
*524 _0478_
*525 _0479_
*526 _0480_
*527 _0481_
*528 _0482_
*529 _0483_
*530 _0484_
*531 _0485_
*532 _0486_
*533 _0487_
*534 _0488_
*535 _0489_
*536 _0490_
*537 _0491_
*538 _0492_
*539 _0493_
*540 _0494_
*541 _0495_
*542 _0496_
*543 _0497_
*544 _0498_
*545 _0499_
*546 _0500_
*547 _0501_
*548 _0502_
*549 _0503_
*550 _0504_
*551 _0505_
*552 _0506_
*553 _0507_
*554 _0508_
*555 _0509_
*556 _0510_
*557 _0511_
*558 _0512_
*559 _0513_
*560 _0514_
*561 _0515_
*562 _0516_
*563 _0517_
*564 _0518_
*565 _0519_
*566 _0520_
*567 _0521_
*568 _0522_
*569 _0523_
*570 _0524_
*571 _0525_
*572 _0526_
*573 _0527_
*574 _0528_
*575 _0529_
*576 _0530_
*577 _0531_
*578 _0532_
*579 _0533_
*580 _0534_
*581 _0535_
*582 _0536_
*583 _0537_
*584 _0538_
*585 _0539_
*586 _0540_
*587 _0541_
*588 _0542_
*589 _0543_
*590 _0544_
*591 _0545_
*592 _0546_
*593 _0547_
*594 _0548_
*595 _0549_
*596 _0550_
*597 _0551_
*598 _0552_
*599 _0553_
*600 _0554_
*601 block1\.FETCH_ready
*602 block1\.column_indices\[0\]\[0\]
*603 block1\.column_indices\[0\]\[1\]
*604 block1\.column_indices\[1\]\[0\]
*605 block1\.column_indices\[1\]\[1\]
*606 block1\.column_indices\[2\]\[0\]
*607 block1\.column_indices\[2\]\[1\]
*608 block1\.column_indices\[3\]\[0\]
*609 block1\.column_indices\[3\]\[1\]
*610 block1\.column_indices\[4\]\[0\]
*611 block1\.column_indices\[4\]\[1\]
*612 block1\.column_indices\[5\]\[0\]
*613 block1\.column_indices\[5\]\[1\]
*614 block1\.column_indices\[6\]\[0\]
*615 block1\.column_indices\[6\]\[1\]
*616 block1\.column_indices\[7\]\[0\]
*617 block1\.column_indices\[7\]\[1\]
*618 block1\.column_indices\[8\]\[0\]
*619 block1\.column_indices\[8\]\[1\]
*620 block1\.current_row\[0\]
*621 block1\.current_row\[1\]
*622 block1\.i\[0\]
*623 block1\.i\[1\]
*624 block1\.i\[2\]
*625 block1\.i\[3\]
*626 block1\.interval\[0\]
*627 block1\.interval\[1\]
*628 block1\.interval\[2\]
*629 block1\.interval\[3\]
*630 block1\.interval\[4\]
*631 block1\.interval\[5\]
*632 block1\.interval\[6\]
*633 block1\.interval\[7\]
*634 block1\.j\[0\]
*635 block1\.j\[1\]
*636 block1\.result\[0\]\[0\]
*637 block1\.result\[0\]\[1\]
*638 block1\.result\[0\]\[2\]
*639 block1\.result\[0\]\[3\]
*640 block1\.result\[0\]\[4\]
*641 block1\.result\[0\]\[5\]
*642 block1\.result\[0\]\[6\]
*643 block1\.result\[0\]\[7\]
*644 block1\.result\[1\]\[0\]
*645 block1\.result\[1\]\[1\]
*646 block1\.result\[1\]\[2\]
*647 block1\.result\[1\]\[3\]
*648 block1\.result\[1\]\[4\]
*649 block1\.result\[1\]\[5\]
*650 block1\.result\[1\]\[6\]
*651 block1\.result\[1\]\[7\]
*652 block1\.result\[2\]\[0\]
*653 block1\.result\[2\]\[1\]
*654 block1\.result\[2\]\[2\]
*655 block1\.result\[2\]\[3\]
*656 block1\.result\[2\]\[4\]
*657 block1\.result\[2\]\[5\]
*658 block1\.result\[2\]\[6\]
*659 block1\.result\[2\]\[7\]
*660 block1\.row_pointers\[0\]\[0\]
*661 block1\.row_pointers\[0\]\[1\]
*662 block1\.row_pointers\[1\]\[0\]
*663 block1\.row_pointers\[1\]\[1\]
*664 block1\.row_pointers\[2\]\[0\]
*665 block1\.row_pointers\[2\]\[1\]
*666 block1\.row_pointers\[3\]\[0\]
*667 block1\.row_pointers\[3\]\[1\]
*668 block1\.row_pointers\[4\]\[0\]
*669 block1\.row_pointers\[4\]\[1\]
*670 block1\.row_pointers\[5\]\[0\]
*671 block1\.row_pointers\[5\]\[1\]
*672 block1\.row_pointers\[6\]\[0\]
*673 block1\.row_pointers\[6\]\[1\]
*674 block1\.row_pointers\[7\]\[0\]
*675 block1\.row_pointers\[7\]\[1\]
*676 block1\.row_pointers\[8\]\[0\]
*677 block1\.row_pointers\[8\]\[1\]
*678 block1\.sending_out
*679 block1\.spike_train\[0\]
*680 block1\.spike_train\[1\]
*681 block1\.spike_train\[2\]
*682 block1\.state\[0\]
*683 block1\.state\[1\]
*684 block1\.state\[2\]
*685 block1\.values\[0\]\[0\]
*686 block1\.values\[0\]\[1\]
*687 block1\.values\[0\]\[2\]
*688 block1\.values\[0\]\[3\]
*689 block1\.values\[0\]\[4\]
*690 block1\.values\[0\]\[5\]
*691 block1\.values\[0\]\[6\]
*692 block1\.values\[0\]\[7\]
*693 block1\.values\[1\]\[0\]
*694 block1\.values\[1\]\[1\]
*695 block1\.values\[1\]\[2\]
*696 block1\.values\[1\]\[3\]
*697 block1\.values\[1\]\[4\]
*698 block1\.values\[1\]\[5\]
*699 block1\.values\[1\]\[6\]
*700 block1\.values\[1\]\[7\]
*701 block1\.values\[2\]\[0\]
*702 block1\.values\[2\]\[1\]
*703 block1\.values\[2\]\[2\]
*704 block1\.values\[2\]\[3\]
*705 block1\.values\[2\]\[4\]
*706 block1\.values\[2\]\[5\]
*707 block1\.values\[2\]\[6\]
*708 block1\.values\[2\]\[7\]
*709 block1\.values\[3\]\[0\]
*710 block1\.values\[3\]\[1\]
*711 block1\.values\[3\]\[2\]
*712 block1\.values\[3\]\[3\]
*713 block1\.values\[3\]\[4\]
*714 block1\.values\[3\]\[5\]
*715 block1\.values\[3\]\[6\]
*716 block1\.values\[3\]\[7\]
*717 block1\.values\[4\]\[0\]
*718 block1\.values\[4\]\[1\]
*719 block1\.values\[4\]\[2\]
*720 block1\.values\[4\]\[3\]
*721 block1\.values\[4\]\[4\]
*722 block1\.values\[4\]\[5\]
*723 block1\.values\[4\]\[6\]
*724 block1\.values\[4\]\[7\]
*725 block1\.values\[5\]\[0\]
*726 block1\.values\[5\]\[1\]
*727 block1\.values\[5\]\[2\]
*728 block1\.values\[5\]\[3\]
*729 block1\.values\[5\]\[4\]
*730 block1\.values\[5\]\[5\]
*731 block1\.values\[5\]\[6\]
*732 block1\.values\[5\]\[7\]
*733 block1\.values\[6\]\[0\]
*734 block1\.values\[6\]\[1\]
*735 block1\.values\[6\]\[2\]
*736 block1\.values\[6\]\[3\]
*737 block1\.values\[6\]\[4\]
*738 block1\.values\[6\]\[5\]
*739 block1\.values\[6\]\[6\]
*740 block1\.values\[6\]\[7\]
*741 block1\.values\[7\]\[0\]
*742 block1\.values\[7\]\[1\]
*743 block1\.values\[7\]\[2\]
*744 block1\.values\[7\]\[3\]
*745 block1\.values\[7\]\[4\]
*746 block1\.values\[7\]\[5\]
*747 block1\.values\[7\]\[6\]
*748 block1\.values\[7\]\[7\]
*749 block1\.values\[8\]\[0\]
*750 block1\.values\[8\]\[1\]
*751 block1\.values\[8\]\[2\]
*752 block1\.values\[8\]\[3\]
*753 block1\.values\[8\]\[4\]
*754 block1\.values\[8\]\[5\]
*755 block1\.values\[8\]\[6\]
*756 block1\.values\[8\]\[7\]
*757 clknet_0_clk
*758 clknet_4_0_0_clk
*759 clknet_4_10_0_clk
*760 clknet_4_11_0_clk
*761 clknet_4_12_0_clk
*762 clknet_4_13_0_clk
*763 clknet_4_14_0_clk
*764 clknet_4_15_0_clk
*765 clknet_4_1_0_clk
*766 clknet_4_2_0_clk
*767 clknet_4_3_0_clk
*768 clknet_4_4_0_clk
*769 clknet_4_5_0_clk
*770 clknet_4_6_0_clk
*771 clknet_4_7_0_clk
*772 clknet_4_8_0_clk
*773 clknet_4_9_0_clk
*774 net1
*775 net10
*776 net100
*777 net101
*778 net102
*779 net103
*780 net104
*781 net105
*782 net106
*783 net107
*784 net108
*785 net109
*786 net11
*787 net110
*788 net111
*789 net112
*790 net113
*791 net114
*792 net115
*793 net116
*794 net117
*795 net118
*796 net119
*797 net12
*798 net120
*799 net121
*800 net122
*801 net123
*802 net124
*803 net125
*804 net126
*805 net127
*806 net128
*807 net129
*808 net13
*809 net130
*810 net131
*811 net132
*812 net133
*813 net134
*814 net135
*815 net136
*816 net137
*817 net138
*818 net139
*819 net14
*820 net140
*821 net141
*822 net142
*823 net143
*824 net144
*825 net145
*826 net146
*827 net147
*828 net148
*829 net149
*830 net15
*831 net150
*832 net151
*833 net152
*834 net153
*835 net154
*836 net155
*837 net156
*838 net157
*839 net158
*840 net159
*841 net16
*842 net160
*843 net161
*844 net162
*845 net163
*846 net164
*847 net165
*848 net166
*849 net167
*850 net168
*851 net169
*852 net17
*853 net170
*854 net171
*855 net172
*856 net173
*857 net174
*858 net175
*859 net176
*860 net177
*861 net178
*862 net179
*863 net18
*864 net180
*865 net181
*866 net19
*867 net2
*868 net20
*869 net3
*870 net35
*871 net36
*872 net37
*873 net38
*874 net39
*875 net4
*876 net40
*877 net41
*878 net42
*879 net43
*880 net44
*881 net45
*882 net46
*883 net47
*884 net48
*885 net49
*886 net5
*887 net50
*888 net51
*889 net52
*890 net53
*891 net54
*892 net55
*893 net56
*894 net57
*895 net58
*896 net59
*897 net6
*898 net60
*899 net61
*900 net62
*901 net63
*902 net64
*903 net65
*904 net66
*905 net67
*906 net68
*907 net69
*908 net7
*909 net70
*910 net71
*911 net72
*912 net73
*913 net74
*914 net75
*915 net76
*916 net77
*917 net78
*918 net79
*919 net8
*920 net80
*921 net81
*922 net82
*923 net83
*924 net84
*925 net85
*926 net86
*927 net87
*928 net88
*929 net89
*930 net9
*931 net90
*932 net91
*933 net92
*934 net93
*935 net94
*936 net95
*937 net96
*938 net97
*939 net98
*940 net99
*941 FILLER_0_0_109
*942 FILLER_0_0_113
*943 FILLER_0_0_125
*944 FILLER_0_0_137
*945 FILLER_0_0_141
*946 FILLER_0_0_15
*947 FILLER_0_0_153
*948 FILLER_0_0_165
*949 FILLER_0_0_169
*950 FILLER_0_0_181
*951 FILLER_0_0_193
*952 FILLER_0_0_197
*953 FILLER_0_0_209
*954 FILLER_0_0_221
*955 FILLER_0_0_225
*956 FILLER_0_0_237
*957 FILLER_0_0_249
*958 FILLER_0_0_253
*959 FILLER_0_0_265
*960 FILLER_0_0_27
*961 FILLER_0_0_277
*962 FILLER_0_0_281
*963 FILLER_0_0_29
*964 FILLER_0_0_293
*965 FILLER_0_0_3
*966 FILLER_0_0_305
*967 FILLER_0_0_309
*968 FILLER_0_0_321
*969 FILLER_0_0_333
*970 FILLER_0_0_337
*971 FILLER_0_0_349
*972 FILLER_0_0_41
*973 FILLER_0_0_53
*974 FILLER_0_0_57
*975 FILLER_0_0_69
*976 FILLER_0_0_81
*977 FILLER_0_0_85
*978 FILLER_0_0_97
*979 FILLER_0_10_11
*980 FILLER_0_10_126
*981 FILLER_0_10_138
*982 FILLER_0_10_141
*983 FILLER_0_10_17
*984 FILLER_0_10_180
*985 FILLER_0_10_192
*986 FILLER_0_10_197
*987 FILLER_0_10_201
*988 FILLER_0_10_237
*989 FILLER_0_10_25
*990 FILLER_0_10_269
*991 FILLER_0_10_281
*992 FILLER_0_10_3
*993 FILLER_0_10_304
*994 FILLER_0_10_309
*995 FILLER_0_10_321
*996 FILLER_0_10_333
*997 FILLER_0_10_345
*998 FILLER_0_10_53
*999 FILLER_0_10_78
*1000 FILLER_0_10_85
*1001 FILLER_0_10_97
*1002 FILLER_0_11_107
*1003 FILLER_0_11_111
*1004 FILLER_0_11_122
*1005 FILLER_0_11_134
*1006 FILLER_0_11_146
*1007 FILLER_0_11_15
*1008 FILLER_0_11_155
*1009 FILLER_0_11_167
*1010 FILLER_0_11_187
*1011 FILLER_0_11_217
*1012 FILLER_0_11_27
*1013 FILLER_0_11_276
*1014 FILLER_0_11_3
*1015 FILLER_0_11_323
*1016 FILLER_0_11_335
*1017 FILLER_0_11_337
*1018 FILLER_0_11_349
*1019 FILLER_0_11_55
*1020 FILLER_0_11_73
*1021 FILLER_0_11_79
*1022 FILLER_0_11_96
*1023 FILLER_0_12_135
*1024 FILLER_0_12_139
*1025 FILLER_0_12_172
*1026 FILLER_0_12_189
*1027 FILLER_0_12_195
*1028 FILLER_0_12_197
*1029 FILLER_0_12_26
*1030 FILLER_0_12_277
*1031 FILLER_0_12_294
*1032 FILLER_0_12_3
*1033 FILLER_0_12_307
*1034 FILLER_0_12_329
*1035 FILLER_0_12_341
*1036 FILLER_0_12_349
*1037 FILLER_0_12_44
*1038 FILLER_0_12_48
*1039 FILLER_0_12_52
*1040 FILLER_0_12_77
*1041 FILLER_0_12_83
*1042 FILLER_0_12_88
*1043 FILLER_0_12_9
*1044 FILLER_0_13_110
*1045 FILLER_0_13_169
*1046 FILLER_0_13_206
*1047 FILLER_0_13_219
*1048 FILLER_0_13_223
*1049 FILLER_0_13_252
*1050 FILLER_0_13_256
*1051 FILLER_0_13_264
*1052 FILLER_0_13_268
*1053 FILLER_0_13_275
*1054 FILLER_0_13_279
*1055 FILLER_0_13_281
*1056 FILLER_0_13_289
*1057 FILLER_0_13_3
*1058 FILLER_0_13_314
*1059 FILLER_0_13_34
*1060 FILLER_0_13_345
*1061 FILLER_0_13_73
*1062 FILLER_0_13_81
*1063 FILLER_0_14_11
*1064 FILLER_0_14_125
*1065 FILLER_0_14_137
*1066 FILLER_0_14_141
*1067 FILLER_0_14_151
*1068 FILLER_0_14_17
*1069 FILLER_0_14_175
*1070 FILLER_0_14_205
*1071 FILLER_0_14_250
*1072 FILLER_0_14_253
*1073 FILLER_0_14_266
*1074 FILLER_0_14_27
*1075 FILLER_0_14_278
*1076 FILLER_0_14_290
*1077 FILLER_0_14_296
*1078 FILLER_0_14_3
*1079 FILLER_0_14_312
*1080 FILLER_0_14_350
*1081 FILLER_0_14_42
*1082 FILLER_0_14_54
*1083 FILLER_0_14_78
*1084 FILLER_0_14_85
*1085 FILLER_0_14_89
*1086 FILLER_0_14_99
*1087 FILLER_0_15_113
*1088 FILLER_0_15_125
*1089 FILLER_0_15_137
*1090 FILLER_0_15_145
*1091 FILLER_0_15_167
*1092 FILLER_0_15_177
*1093 FILLER_0_15_189
*1094 FILLER_0_15_201
*1095 FILLER_0_15_222
*1096 FILLER_0_15_243
*1097 FILLER_0_15_247
*1098 FILLER_0_15_273
*1099 FILLER_0_15_279
*1100 FILLER_0_15_292
*1101 FILLER_0_15_3
*1102 FILLER_0_15_319
*1103 FILLER_0_15_334
*1104 FILLER_0_15_337
*1105 FILLER_0_15_349
*1106 FILLER_0_15_49
*1107 FILLER_0_15_55
*1108 FILLER_0_15_57
*1109 FILLER_0_15_61
*1110 FILLER_0_15_86
*1111 FILLER_0_15_94
*1112 FILLER_0_16_137
*1113 FILLER_0_16_141
*1114 FILLER_0_16_173
*1115 FILLER_0_16_185
*1116 FILLER_0_16_193
*1117 FILLER_0_16_200
*1118 FILLER_0_16_26
*1119 FILLER_0_16_262
*1120 FILLER_0_16_291
*1121 FILLER_0_16_3
*1122 FILLER_0_16_304
*1123 FILLER_0_16_320
*1124 FILLER_0_16_350
*1125 FILLER_0_16_47
*1126 FILLER_0_16_55
*1127 FILLER_0_16_82
*1128 FILLER_0_16_85
*1129 FILLER_0_17_11
*1130 FILLER_0_17_129
*1131 FILLER_0_17_141
*1132 FILLER_0_17_17
*1133 FILLER_0_17_186
*1134 FILLER_0_17_190
*1135 FILLER_0_17_216
*1136 FILLER_0_17_225
*1137 FILLER_0_17_238
*1138 FILLER_0_17_255
*1139 FILLER_0_17_3
*1140 FILLER_0_17_326
*1141 FILLER_0_17_330
*1142 FILLER_0_17_34
*1143 FILLER_0_17_344
*1144 FILLER_0_17_350
*1145 FILLER_0_17_46
*1146 FILLER_0_17_57
*1147 FILLER_0_17_94
*1148 FILLER_0_18_137
*1149 FILLER_0_18_141
*1150 FILLER_0_18_149
*1151 FILLER_0_18_15
*1152 FILLER_0_18_155
*1153 FILLER_0_18_168
*1154 FILLER_0_18_174
*1155 FILLER_0_18_191
*1156 FILLER_0_18_195
*1157 FILLER_0_18_197
*1158 FILLER_0_18_240
*1159 FILLER_0_18_248
*1160 FILLER_0_18_253
*1161 FILLER_0_18_26
*1162 FILLER_0_18_265
*1163 FILLER_0_18_286
*1164 FILLER_0_18_3
*1165 FILLER_0_18_306
*1166 FILLER_0_18_316
*1167 FILLER_0_18_324
*1168 FILLER_0_18_342
*1169 FILLER_0_18_350
*1170 FILLER_0_18_44
*1171 FILLER_0_18_56
*1172 FILLER_0_18_98
*1173 FILLER_0_19_107
*1174 FILLER_0_19_11
*1175 FILLER_0_19_113
*1176 FILLER_0_19_140
*1177 FILLER_0_19_152
*1178 FILLER_0_19_164
*1179 FILLER_0_19_17
*1180 FILLER_0_19_177
*1181 FILLER_0_19_222
*1182 FILLER_0_19_225
*1183 FILLER_0_19_257
*1184 FILLER_0_19_263
*1185 FILLER_0_19_281
*1186 FILLER_0_19_3
*1187 FILLER_0_19_345
*1188 FILLER_0_19_47
*1189 FILLER_0_19_55
*1190 FILLER_0_19_57
*1191 FILLER_0_19_69
*1192 FILLER_0_19_99
*1193 FILLER_0_1_105
*1194 FILLER_0_1_111
*1195 FILLER_0_1_113
*1196 FILLER_0_1_125
*1197 FILLER_0_1_137
*1198 FILLER_0_1_149
*1199 FILLER_0_1_15
*1200 FILLER_0_1_161
*1201 FILLER_0_1_167
*1202 FILLER_0_1_169
*1203 FILLER_0_1_181
*1204 FILLER_0_1_193
*1205 FILLER_0_1_205
*1206 FILLER_0_1_217
*1207 FILLER_0_1_223
*1208 FILLER_0_1_225
*1209 FILLER_0_1_237
*1210 FILLER_0_1_249
*1211 FILLER_0_1_261
*1212 FILLER_0_1_27
*1213 FILLER_0_1_273
*1214 FILLER_0_1_279
*1215 FILLER_0_1_281
*1216 FILLER_0_1_293
*1217 FILLER_0_1_3
*1218 FILLER_0_1_305
*1219 FILLER_0_1_317
*1220 FILLER_0_1_329
*1221 FILLER_0_1_335
*1222 FILLER_0_1_337
*1223 FILLER_0_1_349
*1224 FILLER_0_1_39
*1225 FILLER_0_1_51
*1226 FILLER_0_1_55
*1227 FILLER_0_1_57
*1228 FILLER_0_1_69
*1229 FILLER_0_1_81
*1230 FILLER_0_1_93
*1231 FILLER_0_20_109
*1232 FILLER_0_20_121
*1233 FILLER_0_20_133
*1234 FILLER_0_20_163
*1235 FILLER_0_20_175
*1236 FILLER_0_20_189
*1237 FILLER_0_20_195
*1238 FILLER_0_20_24
*1239 FILLER_0_20_256
*1240 FILLER_0_20_264
*1241 FILLER_0_20_270
*1242 FILLER_0_20_29
*1243 FILLER_0_20_292
*1244 FILLER_0_20_3
*1245 FILLER_0_20_304
*1246 FILLER_0_20_309
*1247 FILLER_0_20_321
*1248 FILLER_0_20_336
*1249 FILLER_0_20_347
*1250 FILLER_0_20_61
*1251 FILLER_0_20_67
*1252 FILLER_0_20_7
*1253 FILLER_0_21_110
*1254 FILLER_0_21_123
*1255 FILLER_0_21_127
*1256 FILLER_0_21_15
*1257 FILLER_0_21_176
*1258 FILLER_0_21_183
*1259 FILLER_0_21_195
*1260 FILLER_0_21_217
*1261 FILLER_0_21_223
*1262 FILLER_0_21_225
*1263 FILLER_0_21_260
*1264 FILLER_0_21_273
*1265 FILLER_0_21_279
*1266 FILLER_0_21_291
*1267 FILLER_0_21_295
*1268 FILLER_0_21_3
*1269 FILLER_0_21_305
*1270 FILLER_0_21_313
*1271 FILLER_0_21_317
*1272 FILLER_0_21_334
*1273 FILLER_0_21_337
*1274 FILLER_0_21_349
*1275 FILLER_0_21_63
*1276 FILLER_0_21_71
*1277 FILLER_0_22_110
*1278 FILLER_0_22_116
*1279 FILLER_0_22_126
*1280 FILLER_0_22_166
*1281 FILLER_0_22_192
*1282 FILLER_0_22_229
*1283 FILLER_0_22_249
*1284 FILLER_0_22_253
*1285 FILLER_0_22_257
*1286 FILLER_0_22_282
*1287 FILLER_0_22_3
*1288 FILLER_0_22_309
*1289 FILLER_0_22_313
*1290 FILLER_0_22_317
*1291 FILLER_0_22_337
*1292 FILLER_0_22_349
*1293 FILLER_0_22_46
*1294 FILLER_0_22_50
*1295 FILLER_0_22_75
*1296 FILLER_0_22_94
*1297 FILLER_0_23_105
*1298 FILLER_0_23_11
*1299 FILLER_0_23_137
*1300 FILLER_0_23_162
*1301 FILLER_0_23_169
*1302 FILLER_0_23_173
*1303 FILLER_0_23_188
*1304 FILLER_0_23_195
*1305 FILLER_0_23_219
*1306 FILLER_0_23_223
*1307 FILLER_0_23_225
*1308 FILLER_0_23_233
*1309 FILLER_0_23_242
*1310 FILLER_0_23_266
*1311 FILLER_0_23_270
*1312 FILLER_0_23_274
*1313 FILLER_0_23_3
*1314 FILLER_0_23_311
*1315 FILLER_0_23_317
*1316 FILLER_0_23_321
*1317 FILLER_0_23_329
*1318 FILLER_0_23_347
*1319 FILLER_0_23_46
*1320 FILLER_0_23_84
*1321 FILLER_0_23_97
*1322 FILLER_0_24_135
*1323 FILLER_0_24_139
*1324 FILLER_0_24_141
*1325 FILLER_0_24_15
*1326 FILLER_0_24_165
*1327 FILLER_0_24_169
*1328 FILLER_0_24_194
*1329 FILLER_0_24_219
*1330 FILLER_0_24_227
*1331 FILLER_0_24_23
*1332 FILLER_0_24_262
*1333 FILLER_0_24_27
*1334 FILLER_0_24_291
*1335 FILLER_0_24_3
*1336 FILLER_0_24_303
*1337 FILLER_0_24_307
*1338 FILLER_0_24_309
*1339 FILLER_0_24_313
*1340 FILLER_0_24_349
*1341 FILLER_0_24_53
*1342 FILLER_0_24_58
*1343 FILLER_0_24_78
*1344 FILLER_0_25_102
*1345 FILLER_0_25_110
*1346 FILLER_0_25_122
*1347 FILLER_0_25_128
*1348 FILLER_0_25_144
*1349 FILLER_0_25_15
*1350 FILLER_0_25_152
*1351 FILLER_0_25_158
*1352 FILLER_0_25_166
*1353 FILLER_0_25_180
*1354 FILLER_0_25_192
*1355 FILLER_0_25_212
*1356 FILLER_0_25_220
*1357 FILLER_0_25_266
*1358 FILLER_0_25_297
*1359 FILLER_0_25_3
*1360 FILLER_0_25_309
*1361 FILLER_0_25_337
*1362 FILLER_0_25_349
*1363 FILLER_0_25_57
*1364 FILLER_0_25_65
*1365 FILLER_0_25_77
*1366 FILLER_0_25_92
*1367 FILLER_0_25_98
*1368 FILLER_0_26_106
*1369 FILLER_0_26_118
*1370 FILLER_0_26_129
*1371 FILLER_0_26_138
*1372 FILLER_0_26_141
*1373 FILLER_0_26_15
*1374 FILLER_0_26_157
*1375 FILLER_0_26_169
*1376 FILLER_0_26_181
*1377 FILLER_0_26_194
*1378 FILLER_0_26_197
*1379 FILLER_0_26_209
*1380 FILLER_0_26_213
*1381 FILLER_0_26_22
*1382 FILLER_0_26_251
*1383 FILLER_0_26_267
*1384 FILLER_0_26_297
*1385 FILLER_0_26_3
*1386 FILLER_0_26_305
*1387 FILLER_0_26_309
*1388 FILLER_0_26_340
*1389 FILLER_0_26_348
*1390 FILLER_0_26_38
*1391 FILLER_0_26_49
*1392 FILLER_0_26_61
*1393 FILLER_0_26_73
*1394 FILLER_0_26_85
*1395 FILLER_0_27_110
*1396 FILLER_0_27_116
*1397 FILLER_0_27_128
*1398 FILLER_0_27_15
*1399 FILLER_0_27_165
*1400 FILLER_0_27_169
*1401 FILLER_0_27_189
*1402 FILLER_0_27_205
*1403 FILLER_0_27_222
*1404 FILLER_0_27_234
*1405 FILLER_0_27_251
*1406 FILLER_0_27_265
*1407 FILLER_0_27_27
*1408 FILLER_0_27_277
*1409 FILLER_0_27_3
*1410 FILLER_0_27_307
*1411 FILLER_0_27_332
*1412 FILLER_0_27_337
*1413 FILLER_0_27_349
*1414 FILLER_0_27_35
*1415 FILLER_0_27_44
*1416 FILLER_0_27_57
*1417 FILLER_0_27_70
*1418 FILLER_0_27_89
*1419 FILLER_0_28_101
*1420 FILLER_0_28_121
*1421 FILLER_0_28_125
*1422 FILLER_0_28_15
*1423 FILLER_0_28_164
*1424 FILLER_0_28_176
*1425 FILLER_0_28_200
*1426 FILLER_0_28_235
*1427 FILLER_0_28_247
*1428 FILLER_0_28_251
*1429 FILLER_0_28_260
*1430 FILLER_0_28_27
*1431 FILLER_0_28_270
*1432 FILLER_0_28_29
*1433 FILLER_0_28_3
*1434 FILLER_0_28_307
*1435 FILLER_0_28_312
*1436 FILLER_0_28_316
*1437 FILLER_0_28_322
*1438 FILLER_0_28_331
*1439 FILLER_0_28_343
*1440 FILLER_0_28_37
*1441 FILLER_0_28_45
*1442 FILLER_0_28_88
*1443 FILLER_0_29_113
*1444 FILLER_0_29_121
*1445 FILLER_0_29_15
*1446 FILLER_0_29_156
*1447 FILLER_0_29_165
*1448 FILLER_0_29_169
*1449 FILLER_0_29_177
*1450 FILLER_0_29_204
*1451 FILLER_0_29_222
*1452 FILLER_0_29_225
*1453 FILLER_0_29_237
*1454 FILLER_0_29_250
*1455 FILLER_0_29_27
*1456 FILLER_0_29_274
*1457 FILLER_0_29_281
*1458 FILLER_0_29_3
*1459 FILLER_0_29_335
*1460 FILLER_0_29_344
*1461 FILLER_0_29_350
*1462 FILLER_0_29_39
*1463 FILLER_0_29_47
*1464 FILLER_0_29_76
*1465 FILLER_0_2_109
*1466 FILLER_0_2_121
*1467 FILLER_0_2_133
*1468 FILLER_0_2_139
*1469 FILLER_0_2_141
*1470 FILLER_0_2_15
*1471 FILLER_0_2_153
*1472 FILLER_0_2_165
*1473 FILLER_0_2_177
*1474 FILLER_0_2_189
*1475 FILLER_0_2_195
*1476 FILLER_0_2_197
*1477 FILLER_0_2_209
*1478 FILLER_0_2_221
*1479 FILLER_0_2_233
*1480 FILLER_0_2_245
*1481 FILLER_0_2_251
*1482 FILLER_0_2_253
*1483 FILLER_0_2_265
*1484 FILLER_0_2_27
*1485 FILLER_0_2_277
*1486 FILLER_0_2_289
*1487 FILLER_0_2_29
*1488 FILLER_0_2_3
*1489 FILLER_0_2_301
*1490 FILLER_0_2_307
*1491 FILLER_0_2_309
*1492 FILLER_0_2_321
*1493 FILLER_0_2_333
*1494 FILLER_0_2_345
*1495 FILLER_0_2_41
*1496 FILLER_0_2_53
*1497 FILLER_0_2_65
*1498 FILLER_0_2_77
*1499 FILLER_0_2_83
*1500 FILLER_0_2_85
*1501 FILLER_0_2_97
*1502 FILLER_0_30_102
*1503 FILLER_0_30_111
*1504 FILLER_0_30_123
*1505 FILLER_0_30_131
*1506 FILLER_0_30_149
*1507 FILLER_0_30_15
*1508 FILLER_0_30_161
*1509 FILLER_0_30_175
*1510 FILLER_0_30_187
*1511 FILLER_0_30_19
*1512 FILLER_0_30_197
*1513 FILLER_0_30_225
*1514 FILLER_0_30_237
*1515 FILLER_0_30_247
*1516 FILLER_0_30_26
*1517 FILLER_0_30_262
*1518 FILLER_0_30_271
*1519 FILLER_0_30_283
*1520 FILLER_0_30_287
*1521 FILLER_0_30_3
*1522 FILLER_0_30_309
*1523 FILLER_0_30_325
*1524 FILLER_0_30_350
*1525 FILLER_0_30_46
*1526 FILLER_0_30_68
*1527 FILLER_0_30_77
*1528 FILLER_0_30_83
*1529 FILLER_0_30_85
*1530 FILLER_0_30_96
*1531 FILLER_0_31_103
*1532 FILLER_0_31_121
*1533 FILLER_0_31_140
*1534 FILLER_0_31_15
*1535 FILLER_0_31_152
*1536 FILLER_0_31_158
*1537 FILLER_0_31_185
*1538 FILLER_0_31_225
*1539 FILLER_0_31_231
*1540 FILLER_0_31_273
*1541 FILLER_0_31_279
*1542 FILLER_0_31_281
*1543 FILLER_0_31_293
*1544 FILLER_0_31_3
*1545 FILLER_0_31_301
*1546 FILLER_0_31_311
*1547 FILLER_0_31_319
*1548 FILLER_0_31_329
*1549 FILLER_0_31_335
*1550 FILLER_0_31_337
*1551 FILLER_0_31_349
*1552 FILLER_0_31_57
*1553 FILLER_0_31_69
*1554 FILLER_0_31_81
*1555 FILLER_0_32_117
*1556 FILLER_0_32_15
*1557 FILLER_0_32_194
*1558 FILLER_0_32_197
*1559 FILLER_0_32_21
*1560 FILLER_0_32_238
*1561 FILLER_0_32_246
*1562 FILLER_0_32_25
*1563 FILLER_0_32_284
*1564 FILLER_0_32_296
*1565 FILLER_0_32_3
*1566 FILLER_0_32_307
*1567 FILLER_0_32_312
*1568 FILLER_0_32_324
*1569 FILLER_0_32_350
*1570 FILLER_0_32_80
*1571 FILLER_0_32_85
*1572 FILLER_0_33_107
*1573 FILLER_0_33_11
*1574 FILLER_0_33_111
*1575 FILLER_0_33_130
*1576 FILLER_0_33_155
*1577 FILLER_0_33_185
*1578 FILLER_0_33_197
*1579 FILLER_0_33_203
*1580 FILLER_0_33_221
*1581 FILLER_0_33_231
*1582 FILLER_0_33_243
*1583 FILLER_0_33_251
*1584 FILLER_0_33_263
*1585 FILLER_0_33_271
*1586 FILLER_0_33_279
*1587 FILLER_0_33_287
*1588 FILLER_0_33_3
*1589 FILLER_0_33_302
*1590 FILLER_0_33_308
*1591 FILLER_0_33_314
*1592 FILLER_0_33_335
*1593 FILLER_0_33_337
*1594 FILLER_0_33_349
*1595 FILLER_0_33_49
*1596 FILLER_0_33_55
*1597 FILLER_0_33_65
*1598 FILLER_0_33_89
*1599 FILLER_0_34_111
*1600 FILLER_0_34_122
*1601 FILLER_0_34_131
*1602 FILLER_0_34_139
*1603 FILLER_0_34_15
*1604 FILLER_0_34_150
*1605 FILLER_0_34_162
*1606 FILLER_0_34_177
*1607 FILLER_0_34_187
*1608 FILLER_0_34_195
*1609 FILLER_0_34_197
*1610 FILLER_0_34_209
*1611 FILLER_0_34_232
*1612 FILLER_0_34_250
*1613 FILLER_0_34_264
*1614 FILLER_0_34_27
*1615 FILLER_0_34_272
*1616 FILLER_0_34_287
*1617 FILLER_0_34_299
*1618 FILLER_0_34_3
*1619 FILLER_0_34_316
*1620 FILLER_0_34_340
*1621 FILLER_0_34_348
*1622 FILLER_0_34_62
*1623 FILLER_0_34_83
*1624 FILLER_0_34_85
*1625 FILLER_0_34_93
*1626 FILLER_0_35_101
*1627 FILLER_0_35_109
*1628 FILLER_0_35_126
*1629 FILLER_0_35_15
*1630 FILLER_0_35_165
*1631 FILLER_0_35_169
*1632 FILLER_0_35_187
*1633 FILLER_0_35_199
*1634 FILLER_0_35_27
*1635 FILLER_0_35_270
*1636 FILLER_0_35_278
*1637 FILLER_0_35_291
*1638 FILLER_0_35_3
*1639 FILLER_0_35_300
*1640 FILLER_0_35_308
*1641 FILLER_0_35_320
*1642 FILLER_0_35_334
*1643 FILLER_0_35_337
*1644 FILLER_0_35_349
*1645 FILLER_0_35_35
*1646 FILLER_0_35_52
*1647 FILLER_0_35_80
*1648 FILLER_0_35_92
*1649 FILLER_0_36_115
*1650 FILLER_0_36_130
*1651 FILLER_0_36_139
*1652 FILLER_0_36_15
*1653 FILLER_0_36_150
*1654 FILLER_0_36_162
*1655 FILLER_0_36_166
*1656 FILLER_0_36_184
*1657 FILLER_0_36_190
*1658 FILLER_0_36_206
*1659 FILLER_0_36_242
*1660 FILLER_0_36_250
*1661 FILLER_0_36_27
*1662 FILLER_0_36_283