*SPEF "ieee 1481-1999"
*DESIGN "tt_um_gfg_development_tros"
*DATE "11:11:11 Fri 11 11, 1111"
*VENDOR "OpenRCX"
*PROGRAM "Parallel Extraction"
*VERSION "1.0"
*DESIGN_FLOW "NAME_SCOPE LOCAL" "PIN_CAP NONE"
*DIVIDER /
*DELIMITER :
*BUS_DELIMITER []
*T_UNIT 1 NS
*C_UNIT 1 PF
*R_UNIT 1 OHM
*L_UNIT 1 HENRY

*NAME_MAP
*3 clk
*4 ena
*5 rst_n
*6 ui_in[0]
*7 ui_in[1]
*8 ui_in[2]
*9 ui_in[3]
*10 ui_in[4]
*11 ui_in[5]
*12 ui_in[6]
*13 ui_in[7]
*14 uio_in[0]
*15 uio_in[1]
*16 uio_in[2]
*17 uio_in[3]
*18 uio_in[4]
*19 uio_in[5]
*20 uio_in[6]
*21 uio_in[7]
*22 net290
*23 net291
*24 net292
*25 net293
*26 net294
*27 net295
*28 net296
*29 net297
*30 net298
*31 net299
*32 net300
*33 net301
*34 net302
*35 net303
*36 net304
*37 net305
*38 uo_out[0]
*39 net306
*40 net307
*41 net308
*42 net309
*43 uo_out[5]
*44 uo_out[6]
*45 uo_out[7]
*46 _0000_
*47 _0001_
*48 _0002_
*49 _0003_
*50 _0004_
*51 _0005_
*52 _0006_
*53 _0007_
*54 _0008_
*55 _0009_
*56 _0010_
*57 _0011_
*58 _0012_
*59 _0013_
*60 _0014_
*61 _0015_
*62 _0016_
*63 _0017_
*64 _0018_
*65 _0019_
*66 _0020_
*67 _0021_
*68 _0022_
*69 _0023_
*70 _0024_
*71 _0025_
*72 _0026_
*73 _0027_
*74 _0028_
*75 _0029_
*76 _0030_
*77 _0031_
*78 _0032_
*79 _0033_
*80 _0034_
*81 _0035_
*82 _0036_
*83 _0037_
*84 _0038_
*85 _0039_
*86 _0040_
*87 _0041_
*88 _0042_
*89 _0043_
*90 _0044_
*91 _0045_
*92 _0046_
*93 _0047_
*94 _0048_
*95 _0049_
*96 _0050_
*97 _0051_
*98 _0052_
*99 _0053_
*100 _0054_
*101 _0055_
*102 _0056_
*103 _0057_
*104 _0058_
*105 _0059_
*106 _0060_
*107 _0061_
*108 _0062_
*109 _0063_
*110 _0064_
*111 _0065_
*112 _0066_
*113 _0067_
*114 _0068_
*115 _0069_
*116 _0070_
*117 _0071_
*118 _0072_
*119 _0073_
*120 _0074_
*121 _0075_
*122 _0076_
*123 _0077_
*124 _0078_
*125 _0079_
*126 _0080_
*127 _0081_
*128 _0082_
*129 _0083_
*130 _0084_
*131 _0085_
*132 _0086_
*133 _0087_
*134 _0088_
*135 _0089_
*136 _0090_
*137 _0091_
*138 _0092_
*139 _0093_
*140 _0094_
*141 _0095_
*142 _0096_
*143 _0097_
*144 _0098_
*145 _0099_
*146 _0100_
*147 _0101_
*148 _0102_
*149 _0103_
*150 _0104_
*151 _0105_
*152 _0106_
*153 _0107_
*154 _0108_
*155 _0109_
*156 _0110_
*157 _0111_
*158 _0112_
*159 _0113_
*160 _0114_
*161 _0115_
*162 _0116_
*163 _0117_
*164 _0118_
*165 _0119_
*166 _0120_
*167 _0121_
*168 _0122_
*169 _0123_
*170 _0124_
*171 _0125_
*172 _0126_
*173 _0127_
*174 _0128_
*175 _0129_
*176 _0130_
*177 _0131_
*178 _0132_
*179 _0133_
*180 _0134_
*181 _0135_
*182 _0136_
*183 _0137_
*184 _0138_
*185 _0139_
*186 _0140_
*187 _0141_
*188 _0142_
*189 _0143_
*190 _0144_
*191 _0145_
*192 _0146_
*193 _0147_
*194 _0148_
*195 _0149_
*196 _0150_
*197 _0151_
*198 _0152_
*199 _0153_
*200 _0154_
*201 _0155_
*202 _0156_
*203 _0157_
*204 _0158_
*205 _0159_
*206 _0160_
*207 _0161_
*208 _0162_
*209 _0163_
*210 _0164_
*211 _0165_
*212 _0166_
*213 _0167_
*214 _0168_
*215 _0169_
*216 _0170_
*217 _0171_
*218 _0172_
*219 _0173_
*220 _0174_
*221 _0175_
*222 _0176_
*223 _0177_
*224 _0178_
*225 _0179_
*226 _0180_
*227 _0181_
*228 _0182_
*229 _0183_
*230 _0184_
*231 _0185_
*232 _0186_
*233 _0187_
*234 _0188_
*235 _0189_
*236 _0190_
*237 _0191_
*238 _0192_
*239 _0193_
*240 _0194_
*241 _0195_
*242 _0196_
*243 _0197_
*244 _0198_
*245 _0199_
*246 _0200_
*247 _0201_
*248 _0202_
*249 _0203_
*250 _0204_
*251 _0205_
*252 _0206_
*253 _0207_
*254 _0208_
*255 _0209_
*256 _0210_
*257 _0211_
*258 _0212_
*259 _0213_
*260 _0214_
*261 _0215_
*262 _0216_
*263 _0217_
*264 _0218_
*265 _0219_
*266 _0220_
*267 _0221_
*268 _0222_
*269 _0223_
*270 _0224_
*271 _0225_
*272 _0226_
*273 _0227_
*274 _0228_
*275 _0229_
*276 _0230_
*277 _0231_
*278 _0232_
*279 _0233_
*280 _0234_
*281 _0235_
*282 _0236_
*283 _0237_
*284 _0238_
*285 _0239_
*286 _0240_
*287 _0241_
*288 _0242_
*289 _0243_
*290 _0244_
*291 _0245_
*292 _0246_
*293 _0247_
*294 _0248_
*295 _0249_
*296 _0250_
*297 _0251_
*298 _0252_
*299 _0253_
*300 _0254_
*301 _0255_
*302 _0256_
*303 _0257_
*304 _0258_
*305 _0259_
*306 _0260_
*307 _0261_
*308 _0262_
*309 _0263_
*310 _0264_
*311 _0265_
*312 _0266_
*313 _0267_
*314 _0268_
*315 _0269_
*316 _0270_
*317 _0271_
*318 _0272_
*319 _0273_
*320 _0274_
*321 _0275_
*322 _0276_
*323 _0277_
*324 _0278_
*325 _0279_
*326 _0280_
*327 _0281_
*328 _0282_
*329 _0283_
*330 _0284_
*331 _0285_
*332 _0286_
*333 _0287_
*334 _0288_
*335 _0289_
*336 _0290_
*337 _0291_
*338 _0292_
*339 _0293_
*340 _0294_
*341 _0295_
*342 _0296_
*343 _0297_
*344 _0298_
*345 _0299_
*346 _0300_
*347 _0301_
*348 _0302_
*349 _0303_
*350 _0304_
*351 _0305_
*352 _0306_
*353 _0307_
*354 _0308_
*355 _0309_
*356 _0310_
*357 _0311_
*358 _0312_
*359 _0313_
*360 _0314_
*361 _0315_
*362 _0316_
*363 _0317_
*364 _0318_
*365 _0319_
*366 _0320_
*367 _0321_
*368 _0322_
*369 _0323_
*370 _0324_
*371 _0325_
*372 _0326_
*373 _0327_
*374 _0328_
*375 _0329_
*376 _0330_
*377 _0331_
*378 _0332_
*379 _0333_
*380 _0334_
*381 _0335_
*382 _0336_
*383 _0337_
*384 _0338_
*385 _0339_
*386 _0340_
*387 _0341_
*388 _0342_
*389 _0343_
*390 _0344_
*391 _0345_
*392 _0346_
*393 _0347_
*394 _0348_
*395 _0349_
*396 _0350_
*397 _0351_
*398 _0352_
*399 _0353_
*400 _0354_
*401 _0355_
*402 _0356_
*403 _0357_
*404 _0358_
*405 _0359_
*406 _0360_
*407 _0361_
*408 _0362_
*409 _0363_
*410 _0364_
*411 _0365_
*412 _0366_
*413 _0367_
*414 _0368_
*415 _0369_
*416 _0370_
*417 _0371_
*418 _0372_
*419 _0373_
*420 _0374_
*421 _0375_
*422 _0376_
*423 _0377_
*424 _0378_
*425 _0379_
*426 _0380_
*427 _0381_
*428 _0382_
*429 _0383_
*430 _0384_
*431 _0385_
*432 _0386_
*433 _0387_
*434 _0388_
*435 _0389_
*436 _0390_
*437 _0391_
*438 _0392_
*439 _0393_
*440 _0394_
*441 _0395_
*442 _0396_
*443 _0397_
*444 _0398_
*445 _0399_
*446 _0400_
*447 _0401_
*448 _0402_
*449 _0403_
*450 _0404_
*451 _0405_
*452 _0406_
*453 _0407_
*454 _0408_
*455 _0409_
*456 _0410_
*457 _0411_
*458 _0412_
*459 _0413_
*460 _0414_
*461 _0415_
*462 _0416_
*463 _0417_
*464 _0418_
*465 _0419_
*466 _0420_
*467 _0421_
*468 _0422_
*469 _0423_
*470 _0424_
*471 _0425_
*472 _0426_
*473 _0427_
*474 _0428_
*475 _0429_
*476 _0430_
*477 _0431_
*478 _0432_
*479 _0433_
*480 _0434_
*481 _0435_
*482 _0436_
*483 _0437_
*484 _0438_
*485 _0439_
*486 _0440_
*487 _0441_
*488 _0442_
*489 _0443_
*490 _0444_
*491 _0445_
*492 _0446_
*493 _0447_
*494 _0448_
*495 _0449_
*496 _0450_
*497 _0451_
*498 _0452_
*499 _0453_
*500 _0454_
*501 _0455_
*502 _0456_
*503 _0457_
*504 _0458_
*505 _0459_
*506 _0460_
*507 _0461_
*508 _0462_
*509 _0463_
*510 _0464_
*511 _0465_
*512 _0466_
*513 _0467_
*514 _0468_
*515 _0469_
*516 _0470_
*517 _0471_
*518 _0472_
*519 _0473_
*520 _0474_
*521 _0475_
*522 _0476_
*523 _0477_
*524 _0478_
*525 _0479_
*526 _0480_
*527 _0481_
*528 _0482_
*529 _0483_
*530 _0484_
*531 _0485_
*532 _0486_
*533 _0487_
*534 _0488_
*535 _0489_
*536 _0490_
*537 _0491_
*538 _0492_
*539 _0493_
*540 _0494_
*541 _0495_
*542 _0496_
*543 _0497_
*544 _0498_
*545 _0499_
*546 _0500_
*547 _0501_
*548 _0502_
*549 _0503_
*550 _0504_
*551 _0505_
*552 _0506_
*553 _0507_
*554 _0508_
*555 _0509_
*556 _0510_
*557 _0511_
*558 _0512_
*559 _0513_
*560 _0514_
*561 _0515_
*562 _0516_
*563 _0517_
*564 _0518_
*565 _0519_
*566 _0520_
*567 _0521_
*568 _0522_
*569 _0523_
*570 _0524_
*571 _0525_
*572 _0526_
*573 _0527_
*574 _0528_
*575 _0529_
*576 _0530_
*577 _0531_
*578 _0532_
*579 _0533_
*580 _0534_
*581 _0535_
*582 _0536_
*583 _0537_
*584 _0538_
*585 _0539_
*586 _0540_
*587 _0541_
*588 _0542_
*589 _0543_
*590 _0544_
*591 _0545_
*592 _0546_
*593 _0547_
*594 _0548_
*595 _0549_
*596 _0550_
*597 _0551_
*598 _0552_
*599 _0553_
*600 _0554_
*601 _0555_
*602 _0556_
*603 _0557_
*604 _0558_
*605 _0559_
*606 _0560_
*607 _0561_
*608 _0562_
*609 _0563_
*610 _0564_
*611 _0565_
*612 _0566_
*613 _0567_
*614 _0568_
*615 _0569_
*616 _0570_
*617 _0571_
*618 _0572_
*619 _0573_
*620 _0574_
*621 _0575_
*622 _0576_
*623 _0577_
*624 _0578_
*625 _0579_
*626 _0580_
*627 _0581_
*628 _0582_
*629 _0583_
*630 _0584_
*631 _0585_
*632 _0586_
*633 _0587_
*634 _0588_
*635 _0589_
*636 _0590_
*637 _0591_
*638 _0592_
*639 _0593_
*640 _0594_
*641 clknet_0_clk
*642 clknet_2_0__leaf_clk
*643 clknet_2_1__leaf_clk
*644 clknet_2_2__leaf_clk
*645 clknet_2_3__leaf_clk
*646 data_stream
*647 ena_syncs\[0\]
*648 ena_syncs\[1\]
*649 ena_syncs\[2\]
*650 fmeasurment_einv_sub_ros\.counts\[0\]
*651 fmeasurment_einv_sub_ros\.counts\[10\]
*652 fmeasurment_einv_sub_ros\.counts\[11\]
*653 fmeasurment_einv_sub_ros\.counts\[12\]
*654 fmeasurment_einv_sub_ros\.counts\[13\]
*655 fmeasurment_einv_sub_ros\.counts\[14\]
*656 fmeasurment_einv_sub_ros\.counts\[15\]
*657 fmeasurment_einv_sub_ros\.counts\[16\]
*658 fmeasurment_einv_sub_ros\.counts\[17\]
*659 fmeasurment_einv_sub_ros\.counts\[18\]
*660 fmeasurment_einv_sub_ros\.counts\[19\]
*661 fmeasurment_einv_sub_ros\.counts\[1\]
*662 fmeasurment_einv_sub_ros\.counts\[2\]
*663 fmeasurment_einv_sub_ros\.counts\[3\]
*664 fmeasurment_einv_sub_ros\.counts\[4\]
*665 fmeasurment_einv_sub_ros\.counts\[5\]
*666 fmeasurment_einv_sub_ros\.counts\[6\]
*667 fmeasurment_einv_sub_ros\.counts\[7\]
*668 fmeasurment_einv_sub_ros\.counts\[8\]
*669 fmeasurment_einv_sub_ros\.counts\[9\]
*670 fmeasurment_einv_sub_ros\.cycle_count\[0\]
*671 fmeasurment_einv_sub_ros\.cycle_count\[10\]
*672 fmeasurment_einv_sub_ros\.cycle_count\[11\]
*673 fmeasurment_einv_sub_ros\.cycle_count\[12\]
*674 fmeasurment_einv_sub_ros\.cycle_count\[13\]
*675 fmeasurment_einv_sub_ros\.cycle_count\[14\]
*676 fmeasurment_einv_sub_ros\.cycle_count\[15\]
*677 fmeasurment_einv_sub_ros\.cycle_count\[16\]
*678 fmeasurment_einv_sub_ros\.cycle_count\[17\]
*679 fmeasurment_einv_sub_ros\.cycle_count\[18\]
*680 fmeasurment_einv_sub_ros\.cycle_count\[19\]
*681 fmeasurment_einv_sub_ros\.cycle_count\[1\]
*682 fmeasurment_einv_sub_ros\.cycle_count\[2\]
*683 fmeasurment_einv_sub_ros\.cycle_count\[3\]
*684 fmeasurment_einv_sub_ros\.cycle_count\[4\]
*685 fmeasurment_einv_sub_ros\.cycle_count\[5\]
*686 fmeasurment_einv_sub_ros\.cycle_count\[6\]
*687 fmeasurment_einv_sub_ros\.cycle_count\[7\]
*688 fmeasurment_einv_sub_ros\.cycle_count\[8\]
*689 fmeasurment_einv_sub_ros\.cycle_count\[9\]
*690 fmeasurment_einv_sub_ros\.divided_clk
*691 fmeasurment_einv_sub_ros\.latch_counter_syncs\[0\]
*692 fmeasurment_einv_sub_ros\.latch_counter_syncs\[1\]
*693 fmeasurment_einv_sub_ros\.latch_counter_syncs\[2\]
*694 fmeasurment_einv_sub_ros\.reset_syncs\[0\]
*695 fmeasurment_einv_sub_ros\.reset_syncs\[1\]
*696 fmeasurment_einv_sub_ros\.reset_syncs\[2\]
*697 fmeasurment_nand4_cap_ros\.counts\[0\]
*698 fmeasurment_nand4_cap_ros\.counts\[10\]
*699 fmeasurment_nand4_cap_ros\.counts\[11\]
*700 fmeasurment_nand4_cap_ros\.counts\[12\]
*701 fmeasurment_nand4_cap_ros\.counts\[13\]
*702 fmeasurment_nand4_cap_ros\.counts\[14\]
*703 fmeasurment_nand4_cap_ros\.counts\[15\]
*704 fmeasurment_nand4_cap_ros\.counts\[16\]
*705 fmeasurment_nand4_cap_ros\.counts\[17\]
*706 fmeasurment_nand4_cap_ros\.counts\[18\]
*707 fmeasurment_nand4_cap_ros\.counts\[19\]
*708 fmeasurment_nand4_cap_ros\.counts\[1\]
*709 fmeasurment_nand4_cap_ros\.counts\[2\]
*710 fmeasurment_nand4_cap_ros\.counts\[3\]
*711 fmeasurment_nand4_cap_ros\.counts\[4\]
*712 fmeasurment_nand4_cap_ros\.counts\[5\]
*713 fmeasurment_nand4_cap_ros\.counts\[6\]
*714 fmeasurment_nand4_cap_ros\.counts\[7\]
*715 fmeasurment_nand4_cap_ros\.counts\[8\]
*716 fmeasurment_nand4_cap_ros\.counts\[9\]
*717 fmeasurment_nand4_cap_ros\.cycle_count\[0\]
*718 fmeasurment_nand4_cap_ros\.cycle_count\[10\]
*719 fmeasurment_nand4_cap_ros\.cycle_count\[11\]
*720 fmeasurment_nand4_cap_ros\.cycle_count\[12\]
*721 fmeasurment_nand4_cap_ros\.cycle_count\[13\]
*722 fmeasurment_nand4_cap_ros\.cycle_count\[14\]
*723 fmeasurment_nand4_cap_ros\.cycle_count\[15\]
*724 fmeasurment_nand4_cap_ros\.cycle_count\[16\]
*725 fmeasurment_nand4_cap_ros\.cycle_count\[17\]
*726 fmeasurment_nand4_cap_ros\.cycle_count\[18\]
*727 fmeasurment_nand4_cap_ros\.cycle_count\[19\]
*728 fmeasurment_nand4_cap_ros\.cycle_count\[1\]
*729 fmeasurment_nand4_cap_ros\.cycle_count\[2\]
*730 fmeasurment_nand4_cap_ros\.cycle_count\[3\]
*731 fmeasurment_nand4_cap_ros\.cycle_count\[4\]
*732 fmeasurment_nand4_cap_ros\.cycle_count\[5\]
*733 fmeasurment_nand4_cap_ros\.cycle_count\[6\]
*734 fmeasurment_nand4_cap_ros\.cycle_count\[7\]
*735 fmeasurment_nand4_cap_ros\.cycle_count\[8\]
*736 fmeasurment_nand4_cap_ros\.cycle_count\[9\]
*737 fmeasurment_nand4_cap_ros\.divided_clk
*738 fmeasurment_nand4_cap_ros\.latch_counter_syncs\[0\]
*739 fmeasurment_nand4_cap_ros\.latch_counter_syncs\[1\]
*740 fmeasurment_nand4_cap_ros\.latch_counter_syncs\[2\]
*741 fmeasurment_nand4_cap_ros\.reset_syncs\[0\]
*742 fmeasurment_nand4_cap_ros\.reset_syncs\[1\]
*743 fmeasurment_nand4_cap_ros\.reset_syncs\[2\]
*744 fmeasurment_nand4_ros\.counts\[0\]
*745 fmeasurment_nand4_ros\.counts\[10\]
*746 fmeasurment_nand4_ros\.counts\[11\]
*747 fmeasurment_nand4_ros\.counts\[12\]
*748 fmeasurment_nand4_ros\.counts\[13\]
*749 fmeasurment_nand4_ros\.counts\[14\]
*750 fmeasurment_nand4_ros\.counts\[15\]
*751 fmeasurment_nand4_ros\.counts\[16\]
*752 fmeasurment_nand4_ros\.counts\[17\]
*753 fmeasurment_nand4_ros\.counts\[18\]
*754 fmeasurment_nand4_ros\.counts\[19\]
*755 fmeasurment_nand4_ros\.counts\[1\]
*756 fmeasurment_nand4_ros\.counts\[2\]
*757 fmeasurment_nand4_ros\.counts\[3\]
*758 fmeasurment_nand4_ros\.counts\[4\]
*759 fmeasurment_nand4_ros\.counts\[5\]
*760 fmeasurment_nand4_ros\.counts\[6\]
*761 fmeasurment_nand4_ros\.counts\[7\]
*762 fmeasurment_nand4_ros\.counts\[8\]
*763 fmeasurment_nand4_ros\.counts\[9\]
*764 fmeasurment_nand4_ros\.cycle_count\[0\]
*765 fmeasurment_nand4_ros\.cycle_count\[10\]
*766 fmeasurment_nand4_ros\.cycle_count\[11\]
*767 fmeasurment_nand4_ros\.cycle_count\[12\]
*768 fmeasurment_nand4_ros\.cycle_count\[13\]
*769 fmeasurment_nand4_ros\.cycle_count\[14\]
*770 fmeasurment_nand4_ros\.cycle_count\[15\]
*771 fmeasurment_nand4_ros\.cycle_count\[16\]
*772 fmeasurment_nand4_ros\.cycle_count\[17\]
*773 fmeasurment_nand4_ros\.cycle_count\[18\]
*774 fmeasurment_nand4_ros\.cycle_count\[19\]
*775 fmeasurment_nand4_ros\.cycle_count\[1\]
*776 fmeasurment_nand4_ros\.cycle_count\[2\]
*777 fmeasurment_nand4_ros\.cycle_count\[3\]
*778 fmeasurment_nand4_ros\.cycle_count\[4\]
*779 fmeasurment_nand4_ros\.cycle_count\[5\]
*780 fmeasurment_nand4_ros\.cycle_count\[6\]
*781 fmeasurment_nand4_ros\.cycle_count\[7\]
*782 fmeasurment_nand4_ros\.cycle_count\[8\]
*783 fmeasurment_nand4_ros\.cycle_count\[9\]
*784 fmeasurment_nand4_ros\.divided_clk
*785 fmeasurment_nand4_ros\.latch_counter_syncs\[0\]
*786 fmeasurment_nand4_ros\.latch_counter_syncs\[1\]
*787 fmeasurment_nand4_ros\.latch_counter_syncs\[2\]
*788 fmeasurment_nand4_ros\.reset_syncs\[0\]
*789 fmeasurment_nand4_ros\.reset_syncs\[1\]
*790 fmeasurment_nand4_ros\.reset_syncs\[2\]
*791 net1
*792 net10
*793 net100
*794 net101
*795 net102
*796 net103
*797 net104
*798 net105
*799 net106
*800 net107
*801 net108
*802 net109
*803 net11
*804 net110
*805 net111
*806 net112
*807 net113
*808 net114
*809 net115
*810 net116
*811 net117
*812 net118
*813 net119
*814 net12
*815 net120
*816 net121
*817 net122
*818 net123
*819 net124
*820 net125
*821 net126
*822 net127
*823 net128
*824 net129
*825 net13
*826 net130
*827 net131
*828 net132
*829 net133
*830 net134
*831 net135
*832 net136
*833 net137
*834 net138
*835 net139
*836 net14
*837 net140
*838 net141
*839 net142
*840 net143
*841 net144
*842 net145
*843 net146
*844 net147
*845 net148
*846 net149
*847 net15
*848 net150
*849 net151
*850 net152
*851 net153
*852 net154
*853 net155
*854 net156
*855 net157
*856 net158
*857 net159
*858 net16
*859 net160
*860 net161
*861 net162
*862 net163
*863 net164
*864 net165
*865 net166
*866 net167
*867 net168
*868 net169
*869 net17
*870 net170
*871 net171
*872 net172
*873 net173
*874 net174
*875 net175
*876 net176
*877 net177
*878 net178
*879 net179
*880 net18
*881 net180
*882 net181
*883 net182
*884 net183
*885 net184
*886 net185
*887 net186
*888 net187
*889 net188
*890 net189
*891 net19
*892 net190
*893 net191
*894 net192
*895 net193
*896 net194
*897 net195
*898 net196
*899 net197
*900 net198
*901 net199
*902 net2
*903 net20
*904 net200
*905 net201
*906 net202
*907 net203
*908 net204
*909 net205
*910 net206
*911 net207
*912 net208
*913 net209
*914 net21
*915 net210
*916 net211
*917 net212
*918 net213
*919 net214
*920 net215
*921 net216
*922 net217
*923 net218
*924 net219
*925 net22
*926 net220
*927 net221
*928 net222
*929 net223
*930 net224
*931 net225
*932 net226
*933 net227
*934 net228
*935 net229
*936 net23
*937 net230
*938 net231
*939 net232
*940 net233
*941 net234
*942 net235
*943 net236
*944 net237
*945 net238
*946 net239
*947 net24
*948 net240
*949 net241
*950 net242
*951 net243
*952 net244
*953 net245
*954 net246
*955 net247
*956 net248
*957 net249
*958 net25
*959 net250
*960 net251
*961 net252
*962 net253
*963 net254
*964 net255
*965 net256
*966 net257
*967 net258
*968 net259
*969 net26
*970 net260
*971 net261
*972 net262
*973 net263
*974 net264
*975 net265
*976 net266
*977 net267
*978 net268
*979 net269
*980 net27
*981 net270
*982 net271
*983 net272
*984 net273
*985 net274
*986 net275
*987 net276
*988 net277
*989 net278
*990 net279
*991 net28
*992 net280
*993 net281
*994 net282
*995 net283
*996 net284
*997 net285
*998 net286
*999 net287
*1000 net288
*1001 net289
*1002 net29
*1003 net3
*1004 net30
*1005 net31
*1006 net310
*1007 net311
*1008 net312
*1009 net313
*1010 net314
*1011 net315
*1012 net316
*1013 net317
*1014 net318
*1015 net319
*1016 net32
*1017 net320
*1018 net321
*1019 net322
*1020 net323
*1021 net324
*1022 net325
*1023 net326
*1024 net327
*1025 net328
*1026 net329
*1027 net33
*1028 net330
*1029 net331
*1030 net332
*1031 net333
*1032 net334
*1033 net335
*1034 net336
*1035 net337
*1036 net338
*1037 net34
*1038 net35
*1039 net36
*1040 net37
*1041 net38
*1042 net39
*1043 net4
*1044 net40
*1045 net41
*1046 net42
*1047 net43
*1048 net44
*1049 net45
*1050 net46
*1051 net47
*1052 net48
*1053 net49
*1054 net5
*1055 net50
*1056 net51
*1057 net52
*1058 net53
*1059 net54
*1060 net55
*1061 net56
*1062 net57
*1063 net58
*1064 net59
*1065 net6
*1066 net60
*1067 net61
*1068 net62
*1069 net63
*1070 net64
*1071 net65
*1072 net66
*1073 net67
*1074 net68
*1075 net69
*1076 net7
*1077 net70
*1078 net71
*1079 net72
*1080 net73
*1081 net74
*1082 net75
*1083 net76
*1084 net77
*1085 net78
*1086 net79
*1087 net8
*1088 net80
*1089 net81
*1090 net82
*1091 net83
*1092 net84
*1093 net85
*1094 net86
*1095 net87
*1096 net88
*1097 net89
*1098 net9
*1099 net90
*1100 net91
*1101 net92
*1102 net93
*1103 net94
*1104 net95
*1105 net96
*1106 net97
*1107 net98
*1108 net99
*1109 ros_einv_sub\.nets_notouch_\[0\]
*1110 ros_einv_sub\.nets_notouch_\[10\]
*1111 ros_einv_sub\.nets_notouch_\[11\]
*1112 ros_einv_sub\.nets_notouch_\[12\]
*1113 ros_einv_sub\.nets_notouch_\[13\]
*1114 ros_einv_sub\.nets_notouch_\[14\]
*1115 ros_einv_sub\.nets_notouch_\[15\]
*1116 ros_einv_sub\.nets_notouch_\[16\]
*1117 ros_einv_sub\.nets_notouch_\[17\]
*1118 ros_einv_sub\.nets_notouch_\[18\]
*1119 ros_einv_sub\.nets_notouch_\[19\]
*1120 ros_einv_sub\.nets_notouch_\[1\]
*1121 ros_einv_sub\.nets_notouch_\[20\]
*1122 ros_einv_sub\.nets_notouch_\[21\]
*1123 ros_einv_sub\.nets_notouch_\[22\]
*1124 ros_einv_sub\.nets_notouch_\[23\]
*1125 ros_einv_sub\.nets_notouch_\[24\]
*1126 ros_einv_sub\.nets_notouch_\[2\]
*1127 ros_einv_sub\.nets_notouch_\[3\]
*1128 ros_einv_sub\.nets_notouch_\[4\]
*1129 ros_einv_sub\.nets_notouch_\[5\]
*1130 ros_einv_sub\.nets_notouch_\[6\]
*1131 ros_einv_sub\.nets_notouch_\[7\]
*1132 ros_einv_sub\.nets_notouch_\[8\]
*1133 ros_einv_sub\.nets_notouch_\[9\]
*1134 ros_einv_sub\.sub_voltage_notouch_
*1135 ros_nand4\.nets_notouch_\[0\]
*1136 ros_nand4\.nets_notouch_\[10\]
*1137 ros_nand4\.nets_notouch_\[11\]
*1138 ros_nand4\.nets_notouch_\[12\]
*1139 ros_nand4\.nets_notouch_\[13\]
*1140 ros_nand4\.nets_notouch_\[14\]
*1141 ros_nand4\.nets_notouch_\[15\]
*1142 ros_nand4\.nets_notouch_\[16\]
*1143 ros_nand4\.nets_notouch_\[17\]
*1144 ros_nand4\.nets_notouch_\[18\]
*1145 ros_nand4\.nets_notouch_\[19\]
*1146 ros_nand4\.nets_notouch_\[1\]
*1147 ros_nand4\.nets_notouch_\[20\]
*1148 ros_nand4\.nets_notouch_\[21\]
*1149 ros_nand4\.nets_notouch_\[22\]
*1150 ros_nand4\.nets_notouch_\[23\]
*1151 ros_nand4\.nets_notouch_\[24\]
*1152 ros_nand4\.nets_notouch_\[25\]
*1153 ros_nand4\.nets_notouch_\[26\]
*1154 ros_nand4\.nets_notouch_\[27\]
*1155 ros_nand4\.nets_notouch_\[28\]
*1156 ros_nand4\.nets_notouch_\[29\]
*1157 ros_nand4\.nets_notouch_\[2\]
*1158 ros_nand4\.nets_notouch_\[30\]
*1159 ros_nand4\.nets_notouch_\[31\]
*1160 ros_nand4\.nets_notouch_\[32\]
*1161 ros_nand4\.nets_notouch_\[33\]
*1162 ros_nand4\.nets_notouch_\[34\]
*1163 ros_nand4\.nets_notouch_\[35\]
*1164 ros_nand4\.nets_notouch_\[36\]
*1165 ros_nand4\.nets_notouch_\[37\]
*1166 ros_nand4\.nets_notouch_\[38\]
*1167 ros_nand4\.nets_notouch_\[39\]
*1168 ros_nand4\.nets_notouch_\[3\]
*1169 ros_nand4\.nets_notouch_\[40\]
*1170 ros_nand4\.nets_notouch_\[41\]
*1171 ros_nand4\.nets_notouch_\[42\]
*1172 ros_nand4\.nets_notouch_\[43\]
*1173 ros_nand4\.nets_notouch_\[44\]
*1174 ros_nand4\.nets_notouch_\[45\]
*1175 ros_nand4\.nets_notouch_\[46\]
*1176 ros_nand4\.nets_notouch_\[47\]
*1177 ros_nand4\.nets_notouch_\[48\]
*1178 ros_nand4\.nets_notouch_\[49\]
*1179 ros_nand4\.nets_notouch_\[4\]
*1180 ros_nand4\.nets_notouch_\[50\]
*1181 ros_nand4\.nets_notouch_\[51\]
*1182 ros_nand4\.nets_notouch_\[52\]
*1183 ros_nand4\.nets_notouch_\[53\]
*1184 ros_nand4\.nets_notouch_\[54\]
*1185 ros_nand4\.nets_notouch_\[55\]
*1186 ros_nand4\.nets_notouch_\[56\]
*1187 ros_nand4\.nets_notouch_\[57\]
*1188 ros_nand4\.nets_notouch_\[58\]
*1189 ros_nand4\.nets_notouch_\[59\]
*1190 ros_nand4\.nets_notouch_\[5\]
*1191 ros_nand4\.nets_notouch_\[60\]
*1192 ros_nand4\.nets_notouch_\[61\]
*1193 ros_nand4\.nets_notouch_\[62\]
*1194 ros_nand4\.nets_notouch_\[63\]
*1195 ros_nand4\.nets_notouch_\[64\]
*1196 ros_nand4\.nets_notouch_\[65\]
*1197 ros_nand4\.nets_notouch_\[66\]
*1198 ros_nand4\.nets_notouch_\[6\]
*1199 ros_nand4\.nets_notouch_\[7\]
*1200 ros_nand4\.nets_notouch_\[8\]
*1201 ros_nand4\.nets_notouch_\[9\]
*1202 ros_nand4_cap\.nets_notouch_\[0\]
*1203 ros_nand4_cap\.nets_notouch_\[10\]
*1204 ros_nand4_cap\.nets_notouch_\[11\]
*1205 ros_nand4_cap\.nets_notouch_\[12\]
*1206 ros_nand4_cap\.nets_notouch_\[13\]
*1207 ros_nand4_cap\.nets_notouch_\[14\]
*1208 ros_nand4_cap\.nets_notouch_\[15\]
*1209 ros_nand4_cap\.nets_notouch_\[16\]
*1210 ros_nand4_cap\.nets_notouch_\[17\]
*1211 ros_nand4_cap\.nets_notouch_\[18\]
*1212 ros_nand4_cap\.nets_notouch_\[19\]
*1213 ros_nand4_cap\.nets_notouch_\[1\]
*1214 ros_nand4_cap\.nets_notouch_\[20\]
*1215 ros_nand4_cap\.nets_notouch_\[21\]
*1216 ros_nand4_cap\.nets_notouch_\[22\]
*1217 ros_nand4_cap\.nets_notouch_\[23\]
*1218 ros_nand4_cap\.nets_notouch_\[24\]
*1219 ros_nand4_cap\.nets_notouch_\[25\]
*1220 ros_nand4_cap\.nets_notouch_\[26\]
*1221 ros_nand4_cap\.nets_notouch_\[27\]
*1222 ros_nand4_cap\.nets_notouch_\[28\]
*1223 ros_nand4_cap\.nets_notouch_\[29\]
*1224 ros_nand4_cap\.nets_notouch_\[2\]
*1225 ros_nand4_cap\.nets_notouch_\[30\]
*1226 ros_nand4_cap\.nets_notouch_\[31\]
*1227 ros_nand4_cap\.nets_notouch_\[32\]
*1228 ros_nand4_cap\.nets_notouch_\[33\]
*1229 ros_nand4_cap\.nets_notouch_\[34\]
*1230 ros_nand4_cap\.nets_notouch_\[3\]
*1231 ros_nand4_cap\.nets_notouch_\[4\]
*1232 ros_nand4_cap\.nets_notouch_\[5\]
*1233 ros_nand4_cap\.nets_notouch_\[6\]
*1234 ros_nand4_cap\.nets_notouch_\[7\]
*1235 ros_nand4_cap\.nets_notouch_\[8\]
*1236 ros_nand4_cap\.nets_notouch_\[9\]
*1237 ros_nand4_cap\.open_nets_notouch_\[0\]
*1238 ros_nand4_cap\.open_nets_notouch_\[100\]
*1239 ros_nand4_cap\.open_nets_notouch_\[101\]
*1240 ros_nand4_cap\.open_nets_notouch_\[102\]
*1241 ros_nand4_cap\.open_nets_notouch_\[103\]
*1242 ros_nand4_cap\.open_nets_notouch_\[104\]
*1243 ros_nand4_cap\.open_nets_notouch_\[105\]
*1244 ros_nand4_cap\.open_nets_notouch_\[106\]
*1245 ros_nand4_cap\.open_nets_notouch_\[107\]
*1246 ros_nand4_cap\.open_nets_notouch_\[108\]
*1247 ros_nand4_cap\.open_nets_notouch_\[109\]
*1248 ros_nand4_cap\.open_nets_notouch_\[10\]
*1249 ros_nand4_cap\.open_nets_notouch_\[110\]
*1250 ros_nand4_cap\.open_nets_notouch_\[111\]
*1251 ros_nand4_cap\.open_nets_notouch_\[112\]
*1252 ros_nand4_cap\.open_nets_notouch_\[113\]
*1253 ros_nand4_cap\.open_nets_notouch_\[114\]
*1254 ros_nand4_cap\.open_nets_notouch_\[115\]
*1255 ros_nand4_cap\.open_nets_notouch_\[116\]
*1256 ros_nand4_cap\.open_nets_notouch_\[117\]
*1257 ros_nand4_cap\.open_nets_notouch_\[118\]
*1258 ros_nand4_cap\.open_nets_notouch_\[119\]
*1259 ros_nand4_cap\.open_nets_notouch_\[11\]
*1260 ros_nand4_cap\.open_nets_notouch_\[120\]
*1261 ros_nand4_cap\.open_nets_notouch_\[121\]
*1262 ros_nand4_cap\.open_nets_notouch_\[122\]
*1263 ros_nand4_cap\.open_nets_notouch_\[123\]
*1264 ros_nand4_cap\.open_nets_notouch_\[124\]
*1265 ros_nand4_cap\.open_nets_notouch_\[125\]
*1266 ros_nand4_cap\.open_nets_notouch_\[126\]
*1267 ros_nand4_cap\.open_nets_notouch_\[127\]
*1268 ros_nand4_cap\.open_nets_notouch_\[128\]
*1269 ros_nand4_cap\.open_nets_notouch_\[129\]
*1270 ros_nand4_cap\.open_nets_notouch_\[12\]
*1271 ros_nand4_cap\.open_nets_notouch_\[130\]
*1272 ros_nand4_cap\.open_nets_notouch_\[131\]
*1273 ros_nand4_cap\.open_nets_notouch_\[132\]
*1274 ros_nand4_cap\.open_nets_notouch_\[133\]
*1275 ros_nand4_cap\.open_nets_notouch_\[134\]
*1276 ros_nand4_cap\.open_nets_notouch_\[135\]
*1277 ros_nand4_cap\.open_nets_notouch_\[136\]
*1278 ros_nand4_cap\.open_nets_notouch_\[137\]
*1279 ros_nand4_cap\.open_nets_notouch_\[138\]
*1280 ros_nand4_cap\.open_nets_notouch_\[139\]
*1281 ros_nand4_cap\.open_nets_notouch_\[13\]
*1282 ros_nand4_cap\.open_nets_notouch_\[140\]
*1283 ros_nand4_cap\.open_nets_notouch_\[141\]
*1284 ros_nand4_cap\.open_nets_notouch_\[142\]
*1285 ros_nand4_cap\.open_nets_notouch_\[143\]
*1286 ros_nand4_cap\.open_nets_notouch_\[144\]
*1287 ros_nand4_cap\.open_nets_notouch_\[145\]
*1288 ros_nand4_cap\.open_nets_notouch_\[146\]
*1289 ros_nand4_cap\.open_nets_notouch_\[147\]
*1290 ros_nand4_cap\.open_nets_notouch_\[148\]
*1291 ros_nand4_cap\.open_nets_notouch_\[149\]
*1292 ros_nand4_cap\.open_nets_notouch_\[14\]
*1293 ros_nand4_cap\.open_nets_notouch_\[150\]
*1294 ros_nand4_cap\.open_nets_notouch_\[151\]
*1295 ros_nand4_cap\.open_nets_notouch_\[152\]
*1296 ros_nand4_cap\.open_nets_notouch_\[153\]
*1297 ros_nand4_cap\.open_nets_notouch_\[154\]
*1298 ros_nand4_cap\.open_nets_notouch_\[155\]
*1299 ros_nand4_cap\.open_nets_notouch_\[156\]
*1300 ros_nand4_cap\.open_nets_notouch_\[157\]
*1301 ros_nand4_cap\.open_nets_notouch_\[158\]
*1302 ros_nand4_cap\.open_nets_notouch_\[159\]
*1303 ros_nand4_cap\.open_nets_notouch_\[15\]
*1304 ros_nand4_cap\.open_nets_notouch_\[160\]
*1305 ros_nand4_cap\.open_nets_notouch_\[161\]
*1306 ros_nand4_cap\.open_nets_notouch_\[162\]
*1307 ros_nand4_cap\.open_nets_notouch_\[163\]
*1308 ros_nand4_cap\.open_nets_notouch_\[164\]
*1309 ros_nand4_cap\.open_nets_notouch_\[165\]
*1310 ros_nand4_cap\.open_nets_notouch_\[166\]
*1311 ros_nand4_cap\.open_nets_notouch_\[167\]
*1312 ros_nand4_cap\.open_nets_notouch_\[168\]
*1313 ros_nand4_cap\.open_nets_notouch_\[169\]
*1314 ros_nand4_cap\.open_nets_notouch_\[16\]
*1315 ros_nand4_cap\.open_nets_notouch_\[170\]
*1316 ros_nand4_cap\.open_nets_notouch_\[171\]
*1317 ros_nand4_cap\.open_nets_notouch_\[172\]
*1318 ros_nand4_cap\.open_nets_notouch_\[173\]
*1319 ros_nand4_cap\.open_nets_notouch_\[174\]
*1320 ros_nand4_cap\.open_nets_notouch_\[175\]
*1321 ros_nand4_cap\.open_nets_notouch_\[176\]
*1322 ros_nand4_cap\.open_nets_notouch_\[177\]
*1323 ros_nand4_cap\.open_nets_notouch_\[178\]
*1324 ros_nand4_cap\.open_nets_notouch_\[179\]
*1325 ros_nand4_cap\.open_nets_notouch_\[17\]
*1326 ros_nand4_cap\.open_nets_notouch_\[180\]
*1327 ros_nand4_cap\.open_nets_notouch_\[181\]
*1328 ros_nand4_cap\.open_nets_notouch_\[182\]
*1329 ros_nand4_cap\.open_nets_notouch_\[183\]
*1330 ros_nand4_cap\.open_nets_notouch_\[184\]
*1331 ros_nand4_cap\.open_nets_notouch_\[185\]
*1332 ros_nand4_cap\.open_nets_notouch_\[186\]
*1333 ros_nand4_cap\.open_nets_notouch_\[187\]
*1334 ros_nand4_cap\.open_nets_notouch_\[188\]
*1335 ros_nand4_cap\.open_nets_notouch_\[189\]
*1336 ros_nand4_cap\.open_nets_notouch_\[18\]
*1337 ros_nand4_cap\.open_nets_notouch_\[190\]
*1338 ros_nand4_cap\.open_nets_notouch_\[191\]
*1339 ros_nand4_cap\.open_nets_notouch_\[192\]
*1340 ros_nand4_cap\.open_nets_notouch_\[193\]
*1341 ros_nand4_cap\.open_nets_notouch_\[194\]
*1342 ros_nand4_cap\.open_nets_notouch_\[195\]
*1343 ros_nand4_cap\.open_nets_notouch_\[196\]
*1344 ros_nand4_cap\.open_nets_notouch_\[197\]
*1345 ros_nand4_cap\.open_nets_notouch_\[198\]
*1346 ros_nand4_cap\.open_nets_notouch_\[199\]
*1347 ros_nand4_cap\.open_nets_notouch_\[19\]
*1348 ros_nand4_cap\.open_nets_notouch_\[1\]
*1349 ros_nand4_cap\.open_nets_notouch_\[200\]
*1350 ros_nand4_cap\.open_nets_notouch_\[201\]
*1351 ros_nand4_cap\.open_nets_notouch_\[202\]
*1352 ros_nand4_cap\.open_nets_notouch_\[203\]
*1353 ros_nand4_cap\.open_nets_notouch_\[204\]
*1354 ros_nand4_cap\.open_nets_notouch_\[205\]
*1355 ros_nand4_cap\.open_nets_notouch_\[206\]
*1356 ros_nand4_cap\.open_nets_notouch_\[207\]
*1357 ros_nand4_cap\.open_nets_notouch_\[208\]
*1358 ros_nand4_cap\.open_nets_notouch_\[209\]
*1359 ros_nand4_cap\.open_nets_notouch_\[20\]
*1360 ros_nand4_cap\.open_nets_notouch_\[210\]
*1361 ros_nand4_cap\.open_nets_notouch_\[211\]
*1362 ros_nand4_cap\.open_nets_notouch_\[212\]
*1363 ros_nand4_cap\.open_nets_notouch_\[213\]
*1364 ros_nand4_cap\.open_nets_notouch_\[214\]
*1365 ros_nand4_cap\.open_nets_notouch_\[215\]
*1366 ros_nand4_cap\.open_nets_notouch_\[216\]
*1367 ros_nand4_cap\.open_nets_notouch_\[217\]
*1368 ros_nand4_cap\.open_nets_notouch_\[218\]
*1369 ros_nand4_cap\.open_nets_notouch_\[219\]
*1370 ros_nand4_cap\.open_nets_notouch_\[21\]
*1371 ros_nand4_cap\.open_nets_notouch_\[220\]
*1372 ros_nand4_cap\.open_nets_notouch_\[221\]
*1373 ros_nand4_cap\.open_nets_notouch_\[222\]
*1374 ros_nand4_cap\.open_nets_notouch_\[223\]
*1375 ros_nand4_cap\.open_nets_notouch_\[224\]
*1376 ros_nand4_cap\.open_nets_notouch_\[225\]
*1377 ros_nand4_cap\.open_nets_notouch_\[226\]
*1378 ros_nand4_cap\.open_nets_notouch_\[227\]