*SPEF "ieee 1481-1999"
*DESIGN "tt_um_myuart"
*DATE "11:11:11 Fri 11 11, 1111"
*VENDOR "OpenRCX"
*PROGRAM "Parallel Extraction"
*VERSION "1.0"
*DESIGN_FLOW "NAME_SCOPE LOCAL" "PIN_CAP NONE"
*DIVIDER /
*DELIMITER :
*BUS_DELIMITER []
*T_UNIT 1 NS
*C_UNIT 1 PF
*R_UNIT 1 OHM
*L_UNIT 1 HENRY

*NAME_MAP
*3 clk
*4 ena
*5 rst_n
*6 ui_in[0]
*7 ui_in[1]
*8 ui_in[2]
*9 ui_in[3]
*10 ui_in[4]
*11 ui_in[5]
*12 ui_in[6]
*13 ui_in[7]
*14 uio_in[0]
*15 uio_in[1]
*16 uio_in[2]
*17 uio_in[3]
*18 uio_in[4]
*19 uio_in[5]
*20 uio_in[6]
*21 uio_in[7]
*22 net4
*23 net5
*24 net6
*25 net7
*26 net8
*27 net9
*28 net10
*29 net11
*30 net12
*31 net13
*32 net14
*33 net15
*34 net16
*35 net17
*36 net18
*37 net19
*38 uo_out[0]
*39 uo_out[1]
*40 uo_out[2]
*41 uo_out[3]
*42 uo_out[4]
*43 uo_out[5]
*44 uo_out[6]
*45 uo_out[7]
*46 _0000_
*47 _0001_
*48 _0002_
*49 _0003_
*50 _0004_
*51 _0005_
*52 _0006_
*53 _0007_
*54 _0008_
*55 _0009_
*56 _0010_
*57 _0011_
*58 _0012_
*59 _0013_
*60 _0014_
*61 _0015_
*62 _0016_
*63 _0017_
*64 _0018_
*65 _0019_
*66 _0020_
*67 _0021_
*68 _0022_
*69 _0023_
*70 _0024_
*71 _0025_
*72 _0026_
*73 _0027_
*74 _0028_
*75 _0029_
*76 _0030_
*77 _0031_
*78 _0032_
*79 _0033_
*80 _0034_
*81 _0035_
*82 _0036_
*83 _0037_
*84 _0038_
*85 _0039_
*86 _0040_
*87 _0041_
*88 _0042_
*89 _0043_
*90 _0044_
*91 _0045_
*92 _0046_
*93 _0047_
*94 _0048_
*95 _0049_
*96 _0050_
*97 _0051_
*98 _0052_
*99 _0053_
*100 _0054_
*101 _0055_
*102 _0056_
*103 _0057_
*104 _0058_
*105 _0059_
*106 _0060_
*107 _0061_
*108 _0062_
*109 _0063_
*110 _0064_
*111 _0065_
*112 _0066_
*113 _0067_
*114 _0068_
*115 _0069_
*116 _0070_
*117 _0071_
*118 _0072_
*119 _0073_
*120 _0074_
*121 _0075_
*122 _0076_
*123 _0077_
*124 _0078_
*125 _0079_
*126 _0080_
*127 _0081_
*128 _0082_
*129 _0083_
*130 _0084_
*131 _0085_
*132 _0086_
*133 _0087_
*134 _0088_
*135 _0089_
*136 _0090_
*137 _0091_
*138 _0092_
*139 _0093_
*140 _0094_
*141 _0095_
*142 _0096_
*143 _0097_
*144 _0098_
*145 _0099_
*146 _0100_
*147 _0101_
*148 _0102_
*149 _0103_
*150 _0104_
*151 _0105_
*152 _0106_
*153 _0107_
*154 _0108_
*155 _0109_
*156 _0110_
*157 _0111_
*158 _0112_
*159 _0113_
*160 _0114_
*161 _0115_
*162 _0116_
*163 _0117_
*164 _0118_
*165 _0119_
*166 _0120_
*167 _0121_
*168 _0122_
*169 _0123_
*170 _0124_
*171 _0125_
*172 _0126_
*173 _0127_
*174 _0128_
*175 _0129_
*176 _0130_
*177 _0131_
*178 _0132_
*179 _0133_
*180 _0134_
*181 _0135_
*182 _0136_
*183 _0137_
*184 _0138_
*185 _0139_
*186 _0140_
*187 _0141_
*188 _0142_
*189 _0143_
*190 _0144_
*191 _0145_
*192 _0146_
*193 _0147_
*194 _0148_
*195 _0149_
*196 _0150_
*197 _0151_
*198 _0152_
*199 _0153_
*200 _0154_
*201 _0155_
*202 _0156_
*203 _0157_
*204 _0158_
*205 _0159_
*206 _0160_
*207 _0161_
*208 _0162_
*209 _0163_
*210 _0164_
*211 _0165_
*212 _0166_
*213 _0167_
*214 _0168_
*215 _0169_
*216 _0170_
*217 _0171_
*218 _0172_
*219 _0173_
*220 _0174_
*221 _0175_
*222 _0176_
*223 _0177_
*224 _0178_
*225 _0179_
*226 _0180_
*227 _0181_
*228 _0182_
*229 _0183_
*230 _0184_
*231 _0185_
*232 _0186_
*233 _0187_
*234 _0188_
*235 _0189_
*236 _0190_
*237 _0191_
*238 _0192_
*239 _0193_
*240 _0194_
*241 _0195_
*242 _0196_
*243 _0197_
*244 _0198_
*245 _0199_
*246 _0200_
*247 _0201_
*248 _0202_
*249 _0203_
*250 _0204_
*251 _0205_
*252 _0206_
*253 _0207_
*254 _0208_
*255 _0209_
*256 _0210_
*257 _0211_
*258 _0212_
*259 _0213_
*260 _0214_
*261 _0215_
*262 _0216_
*263 _0217_
*264 _0218_
*265 _0219_
*266 _0220_
*267 _0221_
*268 _0222_
*269 _0223_
*270 _0224_
*271 _0225_
*272 _0226_
*273 _0227_
*274 _0228_
*275 _0229_
*276 _0230_
*277 _0231_
*278 _0232_
*279 _0233_
*280 _0234_
*281 _0235_
*282 _0236_
*283 _0237_
*284 _0238_
*285 _0239_
*286 _0240_
*287 _0241_
*288 _0242_
*289 _0243_
*290 _0244_
*291 _0245_
*292 _0246_
*293 _0247_
*294 _0248_
*295 _0249_
*296 _0250_
*297 _0251_
*298 _0252_
*299 _0253_
*300 _0254_
*301 _0255_
*302 _0256_
*303 _0257_
*304 _0258_
*305 _0259_
*306 _0260_
*307 _0261_
*308 _0262_
*309 _0263_
*310 _0264_
*311 _0265_
*312 _0266_
*313 _0267_
*314 _0268_
*315 _0269_
*316 _0270_
*317 _0271_
*318 _0272_
*319 _0273_
*320 _0274_
*321 _0275_
*322 _0276_
*323 _0277_
*324 _0278_
*325 _0279_
*326 _0280_
*327 _0281_
*328 _0282_
*329 _0283_
*330 _0284_
*331 _0285_
*332 _0286_
*333 _0287_
*334 _0288_
*335 _0289_
*336 _0290_
*337 _0291_
*338 _0292_
*339 _0293_
*340 _0294_
*341 _0295_
*342 _0296_
*343 _0297_
*344 _0298_
*345 _0299_
*346 _0300_
*347 _0301_
*348 _0302_
*349 _0303_
*350 _0304_
*351 _0305_
*352 _0306_
*353 _0307_
*354 _0308_
*355 _0309_
*356 _0310_
*357 _0311_
*358 _0312_
*359 _0313_
*360 _0314_
*361 _0315_
*362 _0316_
*363 _0317_
*364 _0318_
*365 _0319_
*366 _0320_
*367 _0321_
*368 _0322_
*369 _0323_
*370 _0324_
*371 _0325_
*372 _0326_
*373 _0327_
*374 _0328_
*375 _0329_
*376 _0330_
*377 _0331_
*378 _0332_
*379 _0333_
*380 _0334_
*381 _0335_
*382 _0336_
*383 _0337_
*384 _0338_
*385 _0339_
*386 _0340_
*387 _0341_
*388 _0342_
*389 _0343_
*390 _0344_
*391 _0345_
*392 _0346_
*393 _0347_
*394 _0348_
*395 _0349_
*396 _0350_
*397 _0351_
*398 _0352_
*399 _0353_
*400 _0354_
*401 _0355_
*402 _0356_
*403 _0357_
*404 _0358_
*405 _0359_
*406 _0360_
*407 _0361_
*408 _0362_
*409 _0363_
*410 _0364_
*411 _0365_
*412 _0366_
*413 _0367_
*414 _0368_
*415 _0369_
*416 _0370_
*417 _0371_
*418 _0372_
*419 _0373_
*420 _0374_
*421 _0375_
*422 _0376_
*423 _0377_
*424 _0378_
*425 _0379_
*426 _0380_
*427 _0381_
*428 _0382_
*429 _0383_
*430 _0384_
*431 _0385_
*432 _0386_
*433 _0387_
*434 _0388_
*435 _0389_
*436 _0390_
*437 _0391_
*438 _0392_
*439 _0393_
*440 _0394_
*441 _0395_
*442 _0396_
*443 _0397_
*444 _0398_
*445 _0399_
*446 _0400_
*447 _0401_
*448 _0402_
*449 _0403_
*450 _0404_
*451 _0405_
*452 _0406_
*453 _0407_
*454 _0408_
*455 _0409_
*456 _0410_
*457 _0411_
*458 _0412_
*459 _0413_
*460 _0414_
*461 _0415_
*462 _0416_
*463 _0417_
*464 _0418_
*465 _0419_
*466 _0420_
*467 _0421_
*468 _0422_
*469 _0423_
*470 _0424_
*471 _0425_
*472 _0426_
*473 _0427_
*474 _0428_
*475 _0429_
*476 _0430_
*477 _0431_
*478 _0432_
*479 _0433_
*480 _0434_
*481 _0435_
*482 _0436_
*483 _0437_
*484 _0438_
*485 _0439_
*486 _0440_
*487 _0441_
*488 _0442_
*489 _0443_
*490 _0444_
*491 _0445_
*492 _0446_
*493 _0447_
*494 _0448_
*495 _0449_
*496 _0450_
*497 _0451_
*498 _0452_
*499 _0453_
*500 _0454_
*501 _0455_
*502 _0456_
*503 _0457_
*504 _0458_
*505 _0459_
*506 _0460_
*507 _0461_
*508 _0462_
*509 _0463_
*510 _0464_
*511 _0465_
*512 _0466_
*513 _0467_
*514 _0468_
*515 _0469_
*516 _0470_
*517 _0471_
*518 _0472_
*519 _0473_
*520 _0474_
*521 _0475_
*522 _0476_
*523 _0477_
*524 _0478_
*525 _0479_
*526 _0480_
*527 _0481_
*528 _0482_
*529 _0483_
*530 _0484_
*531 _0485_
*532 _0486_
*533 _0487_
*534 _0488_
*535 _0489_
*536 _0490_
*537 _0491_
*538 _0492_
*539 _0493_
*540 _0494_
*541 _0495_
*542 _0496_
*543 _0497_
*544 _0498_
*545 _0499_
*546 _0500_
*547 _0501_
*548 _0502_
*549 _0503_
*550 _0504_
*551 _0505_
*552 _0506_
*553 _0507_
*554 _0508_
*555 _0509_
*556 _0510_
*557 _0511_
*558 _0512_
*559 _0513_
*560 _0514_
*561 _0515_
*562 _0516_
*563 _0517_
*564 _0518_
*565 _0519_
*566 _0520_
*567 _0521_
*568 _0522_
*569 _0523_
*570 _0524_
*571 _0525_
*572 _0526_
*573 _0527_
*574 _0528_
*575 _0529_
*576 _0530_
*577 _0531_
*578 _0532_
*579 _0533_
*580 _0534_
*581 _0535_
*582 _0536_
*583 _0537_
*584 _0538_
*585 _0539_
*586 _0540_
*587 _0541_
*588 _0542_
*589 _0543_
*590 _0544_
*591 _0545_
*592 _0546_
*593 _0547_
*594 _0548_
*595 _0549_
*596 _0550_
*597 _0551_
*598 _0552_
*599 _0553_
*600 _0554_
*601 _0555_
*602 _0556_
*603 _0557_
*604 _0558_
*605 _0559_
*606 _0560_
*607 _0561_
*608 _0562_
*609 byte_counter\[0\]
*610 byte_counter\[1\]
*611 byte_counter\[2\]
*612 byte_counter\[3\]
*613 byte_counter\[4\]
*614 byte_counter\[5\]
*615 byte_counter\[6\]
*616 byte_counter\[7\]
*617 clknet_0_clk
*618 clknet_3_0__leaf_clk
*619 clknet_3_1__leaf_clk
*620 clknet_3_2__leaf_clk
*621 clknet_3_3__leaf_clk
*622 clknet_3_4__leaf_clk
*623 clknet_3_5__leaf_clk
*624 clknet_3_6__leaf_clk
*625 clknet_3_7__leaf_clk
*626 counter\[0\]
*627 counter\[10\]
*628 counter\[11\]
*629 counter\[12\]
*630 counter\[13\]
*631 counter\[14\]
*632 counter\[15\]
*633 counter\[16\]
*634 counter\[17\]
*635 counter\[18\]
*636 counter\[19\]
*637 counter\[1\]
*638 counter\[20\]
*639 counter\[21\]
*640 counter\[22\]
*641 counter\[23\]
*642 counter\[24\]
*643 counter\[25\]
*644 counter\[26\]
*645 counter\[27\]
*646 counter\[28\]
*647 counter\[29\]
*648 counter\[2\]
*649 counter\[30\]
*650 counter\[31\]
*651 counter\[3\]
*652 counter\[4\]
*653 counter\[5\]
*654 counter\[6\]
*655 counter\[7\]
*656 counter\[8\]
*657 counter\[9\]
*658 counter_it
*659 inst_sync_async_reset\.reg3
*660 inst_sync_async_reset\.reg4
*661 inst_sync_async_reset\.reset_n
*662 net1
*663 net2
*664 net20
*665 net21
*666 net22
*667 net23
*668 net24
*669 net25
*670 net26
*671 net27
*672 net28
*673 net29
*674 net3
*675 net30
*676 net31
*677 net32
*678 net33
*679 net34
*680 net35
*681 net36
*682 net37
*683 net38
*684 net39
*685 net40
*686 net41
*687 net42
*688 net43
*689 net44
*690 net45
*691 net46
*692 net47
*693 net48
*694 net49
*695 net50
*696 net51
*697 net52
*698 net53
*699 net54
*700 net55
*701 net56
*702 net57
*703 net58
*704 net59
*705 net60
*706 net61
*707 net62
*708 net63
*709 net64
*710 net65
*711 net66
*712 net67
*713 net68
*714 net69
*715 net70
*716 net71
*717 net72
*718 sine_counter\[0\]
*719 sine_counter\[1\]
*720 sine_counter\[2\]
*721 sine_counter\[3\]
*722 sine_counter\[4\]
*723 sine_counter\[5\]
*724 sine_counter\[6\]
*725 sine_counter\[7\]
*726 state\[0\]
*727 state\[1\]
*728 state\[2\]
*729 uart_tx\.byte_counter\[0\]
*730 uart_tx\.byte_counter\[1\]
*731 uart_tx\.byte_counter\[2\]
*732 uart_tx\.byte_counter\[3\]
*733 uart_tx\.byte_counter\[4\]
*734 uart_tx\.byte_counter\[5\]
*735 uart_tx\.byte_counter\[6\]
*736 uart_tx\.byte_counter\[7\]
*737 uart_tx\.counter\[0\]
*738 uart_tx\.counter\[1\]
*739 uart_tx\.counter\[2\]
*740 uart_tx\.counter\[3\]
*741 uart_tx\.counter\[4\]
*742 uart_tx\.counter\[5\]
*743 uart_tx\.counter\[6\]
*744 uart_tx\.counter\[7\]
*745 uart_tx\.counter_enable
*746 uart_tx\.counter_it
*747 uart_tx\.counter_state
*748 uart_tx\.parity
*749 uart_tx\.state\[0\]
*750 uart_tx\.state\[1\]
*751 uart_tx\.state\[2\]
*752 uart_tx\.state\[3\]
*753 uart_tx\.state\[4\]
*754 uart_tx\.tx_data\[0\]
*755 uart_tx\.tx_data\[1\]
*756 uart_tx\.tx_data\[2\]
*757 uart_tx\.tx_data\[3\]
*758 uart_tx\.tx_data\[4\]
*759 uart_tx\.tx_data\[5\]
*760 uart_tx\.tx_data\[6\]
*761 uart_tx\.uart_tx_data\[0\]
*762 uart_tx\.uart_tx_data\[1\]
*763 uart_tx\.uart_tx_data\[2\]
*764 uart_tx\.uart_tx_data\[3\]
*765 uart_tx\.uart_tx_data\[4\]
*766 uart_tx\.uart_tx_data\[5\]
*767 uart_tx\.uart_tx_data\[6\]
*768 uart_tx\.uart_tx_done
*769 uart_tx\.uart_tx_send
*770 uart_tx\.uart_txd
*771 FILLER_0_0_109
*772 FILLER_0_0_113
*773 FILLER_0_0_125
*774 FILLER_0_0_137
*775 FILLER_0_0_141
*776 FILLER_0_0_15
*777 FILLER_0_0_153
*778 FILLER_0_0_165
*779 FILLER_0_0_169
*780 FILLER_0_0_181
*781 FILLER_0_0_193
*782 FILLER_0_0_197
*783 FILLER_0_0_209
*784 FILLER_0_0_221
*785 FILLER_0_0_225
*786 FILLER_0_0_237
*787 FILLER_0_0_249
*788 FILLER_0_0_253
*789 FILLER_0_0_265
*790 FILLER_0_0_27
*791 FILLER_0_0_277
*792 FILLER_0_0_281
*793 FILLER_0_0_29
*794 FILLER_0_0_293
*795 FILLER_0_0_3
*796 FILLER_0_0_305
*797 FILLER_0_0_309
*798 FILLER_0_0_321
*799 FILLER_0_0_333
*800 FILLER_0_0_337
*801 FILLER_0_0_349
*802 FILLER_0_0_41
*803 FILLER_0_0_53
*804 FILLER_0_0_57
*805 FILLER_0_0_69
*806 FILLER_0_0_81
*807 FILLER_0_0_85
*808 FILLER_0_0_97
*809 FILLER_0_10_108
*810 FILLER_0_10_126
*811 FILLER_0_10_138
*812 FILLER_0_10_15
*813 FILLER_0_10_155
*814 FILLER_0_10_183
*815 FILLER_0_10_195
*816 FILLER_0_10_201
*817 FILLER_0_10_213
*818 FILLER_0_10_239
*819 FILLER_0_10_251
*820 FILLER_0_10_264
*821 FILLER_0_10_27
*822 FILLER_0_10_270
*823 FILLER_0_10_278
*824 FILLER_0_10_29
*825 FILLER_0_10_290
*826 FILLER_0_10_3
*827 FILLER_0_10_302
*828 FILLER_0_10_309
*829 FILLER_0_10_321
*830 FILLER_0_10_333
*831 FILLER_0_10_345
*832 FILLER_0_10_41
*833 FILLER_0_10_53
*834 FILLER_0_10_65
*835 FILLER_0_10_77
*836 FILLER_0_10_83
*837 FILLER_0_10_85
*838 FILLER_0_11_108
*839 FILLER_0_11_119
*840 FILLER_0_11_131
*841 FILLER_0_11_142
*842 FILLER_0_11_15
*843 FILLER_0_11_150
*844 FILLER_0_11_156
*845 FILLER_0_11_169
*846 FILLER_0_11_175
*847 FILLER_0_11_192
*848 FILLER_0_11_196
*849 FILLER_0_11_205
*850 FILLER_0_11_213
*851 FILLER_0_11_218
*852 FILLER_0_11_230
*853 FILLER_0_11_239
*854 FILLER_0_11_244
*855 FILLER_0_11_266
*856 FILLER_0_11_27
*857 FILLER_0_11_277
*858 FILLER_0_11_281
*859 FILLER_0_11_3
*860 FILLER_0_11_301
*861 FILLER_0_11_313
*862 FILLER_0_11_325
*863 FILLER_0_11_333
*864 FILLER_0_11_337
*865 FILLER_0_11_349
*866 FILLER_0_11_39
*867 FILLER_0_11_51
*868 FILLER_0_11_55
*869 FILLER_0_11_57
*870 FILLER_0_11_69
*871 FILLER_0_11_81
*872 FILLER_0_11_93
*873 FILLER_0_12_114
*874 FILLER_0_12_122
*875 FILLER_0_12_139
*876 FILLER_0_12_141
*877 FILLER_0_12_147
*878 FILLER_0_12_15
*879 FILLER_0_12_155
*880 FILLER_0_12_162
*881 FILLER_0_12_169
*882 FILLER_0_12_177
*883 FILLER_0_12_190
*884 FILLER_0_12_200
*885 FILLER_0_12_208
*886 FILLER_0_12_222
*887 FILLER_0_12_233
*888 FILLER_0_12_250
*889 FILLER_0_12_253
*890 FILLER_0_12_260
*891 FILLER_0_12_27
*892 FILLER_0_12_274
*893 FILLER_0_12_29
*894 FILLER_0_12_292
*895 FILLER_0_12_3
*896 FILLER_0_12_304
*897 FILLER_0_12_309
*898 FILLER_0_12_321
*899 FILLER_0_12_333
*900 FILLER_0_12_345
*901 FILLER_0_12_41
*902 FILLER_0_12_53
*903 FILLER_0_12_65
*904 FILLER_0_12_77
*905 FILLER_0_12_83
*906 FILLER_0_12_85
*907 FILLER_0_12_97
*908 FILLER_0_13_101
*909 FILLER_0_13_105
*910 FILLER_0_13_111
*911 FILLER_0_13_113
*912 FILLER_0_13_119
*913 FILLER_0_13_136
*914 FILLER_0_13_140
*915 FILLER_0_13_15
*916 FILLER_0_13_159
*917 FILLER_0_13_167
*918 FILLER_0_13_169
*919 FILLER_0_13_182
*920 FILLER_0_13_212
*921 FILLER_0_13_225
*922 FILLER_0_13_243
*923 FILLER_0_13_247
*924 FILLER_0_13_261
*925 FILLER_0_13_27
*926 FILLER_0_13_278
*927 FILLER_0_13_284
*928 FILLER_0_13_296
*929 FILLER_0_13_3
*930 FILLER_0_13_308
*931 FILLER_0_13_320
*932 FILLER_0_13_332
*933 FILLER_0_13_337
*934 FILLER_0_13_349
*935 FILLER_0_13_39
*936 FILLER_0_13_51
*937 FILLER_0_13_55
*938 FILLER_0_13_57
*939 FILLER_0_13_69
*940 FILLER_0_13_81
*941 FILLER_0_13_93
*942 FILLER_0_14_109
*943 FILLER_0_14_121
*944 FILLER_0_14_133
*945 FILLER_0_14_139
*946 FILLER_0_14_141
*947 FILLER_0_14_146
*948 FILLER_0_14_15
*949 FILLER_0_14_158
*950 FILLER_0_14_182
*951 FILLER_0_14_194
*952 FILLER_0_14_220
*953 FILLER_0_14_228
*954 FILLER_0_14_251
*955 FILLER_0_14_256
*956 FILLER_0_14_27
*957 FILLER_0_14_280
*958 FILLER_0_14_29
*959 FILLER_0_14_292
*960 FILLER_0_14_3
*961 FILLER_0_14_304
*962 FILLER_0_14_309
*963 FILLER_0_14_321
*964 FILLER_0_14_333
*965 FILLER_0_14_345
*966 FILLER_0_14_41
*967 FILLER_0_14_53
*968 FILLER_0_14_65
*969 FILLER_0_14_77
*970 FILLER_0_14_83
*971 FILLER_0_14_85
*972 FILLER_0_14_97
*973 FILLER_0_15_105
*974 FILLER_0_15_111
*975 FILLER_0_15_113
*976 FILLER_0_15_125
*977 FILLER_0_15_137
*978 FILLER_0_15_15
*979 FILLER_0_15_155
*980 FILLER_0_15_167
*981 FILLER_0_15_172
*982 FILLER_0_15_180
*983 FILLER_0_15_210
*984 FILLER_0_15_222
*985 FILLER_0_15_225
*986 FILLER_0_15_231
*987 FILLER_0_15_268
*988 FILLER_0_15_27
*989 FILLER_0_15_281
*990 FILLER_0_15_3
*991 FILLER_0_15_306
*992 FILLER_0_15_318
*993 FILLER_0_15_330
*994 FILLER_0_15_337
*995 FILLER_0_15_349
*996 FILLER_0_15_39
*997 FILLER_0_15_51
*998 FILLER_0_15_55
*999 FILLER_0_15_57
*1000 FILLER_0_15_69
*1001 FILLER_0_15_81
*1002 FILLER_0_15_93
*1003 FILLER_0_16_109
*1004 FILLER_0_16_121
*1005 FILLER_0_16_133
*1006 FILLER_0_16_139
*1007 FILLER_0_16_141
*1008 FILLER_0_16_147
*1009 FILLER_0_16_15
*1010 FILLER_0_16_151
*1011 FILLER_0_16_163
*1012 FILLER_0_16_181
*1013 FILLER_0_16_189
*1014 FILLER_0_16_197
*1015 FILLER_0_16_207
*1016 FILLER_0_16_229
*1017 FILLER_0_16_235
*1018 FILLER_0_16_249
*1019 FILLER_0_16_253
*1020 FILLER_0_16_265
*1021 FILLER_0_16_27
*1022 FILLER_0_16_29
*1023 FILLER_0_16_290
*1024 FILLER_0_16_3
*1025 FILLER_0_16_302
*1026 FILLER_0_16_309
*1027 FILLER_0_16_330
*1028 FILLER_0_16_342
*1029 FILLER_0_16_350
*1030 FILLER_0_16_41
*1031 FILLER_0_16_53
*1032 FILLER_0_16_65
*1033 FILLER_0_16_77
*1034 FILLER_0_16_83
*1035 FILLER_0_16_85
*1036 FILLER_0_16_97
*1037 FILLER_0_17_105
*1038 FILLER_0_17_111
*1039 FILLER_0_17_113
*1040 FILLER_0_17_125
*1041 FILLER_0_17_137
*1042 FILLER_0_17_15
*1043 FILLER_0_17_159
*1044 FILLER_0_17_167
*1045 FILLER_0_17_169
*1046 FILLER_0_17_180
*1047 FILLER_0_17_188
*1048 FILLER_0_17_209
*1049 FILLER_0_17_221
*1050 FILLER_0_17_225
*1051 FILLER_0_17_247
*1052 FILLER_0_17_255
*1053 FILLER_0_17_27
*1054 FILLER_0_17_279
*1055 FILLER_0_17_281
*1056 FILLER_0_17_293
*1057 FILLER_0_17_3
*1058 FILLER_0_17_310
*1059 FILLER_0_17_322
*1060 FILLER_0_17_333
*1061 FILLER_0_17_337
*1062 FILLER_0_17_349
*1063 FILLER_0_17_39
*1064 FILLER_0_17_51
*1065 FILLER_0_17_55
*1066 FILLER_0_17_57
*1067 FILLER_0_17_69
*1068 FILLER_0_17_81
*1069 FILLER_0_17_93
*1070 FILLER_0_18_109
*1071 FILLER_0_18_121
*1072 FILLER_0_18_133
*1073 FILLER_0_18_139
*1074 FILLER_0_18_141
*1075 FILLER_0_18_149
*1076 FILLER_0_18_15
*1077 FILLER_0_18_163
*1078 FILLER_0_18_169
*1079 FILLER_0_18_184
*1080 FILLER_0_18_190
*1081 FILLER_0_18_197
*1082 FILLER_0_18_208
*1083 FILLER_0_18_228
*1084 FILLER_0_18_239
*1085 FILLER_0_18_248
*1086 FILLER_0_18_269
*1087 FILLER_0_18_27
*1088 FILLER_0_18_280
*1089 FILLER_0_18_289
*1090 FILLER_0_18_29
*1091 FILLER_0_18_3
*1092 FILLER_0_18_307
*1093 FILLER_0_18_315
*1094 FILLER_0_18_346
*1095 FILLER_0_18_350
*1096 FILLER_0_18_41
*1097 FILLER_0_18_53
*1098 FILLER_0_18_65
*1099 FILLER_0_18_77
*1100 FILLER_0_18_83
*1101 FILLER_0_18_85
*1102 FILLER_0_18_97
*1103 FILLER_0_19_105
*1104 FILLER_0_19_111
*1105 FILLER_0_19_113
*1106 FILLER_0_19_125
*1107 FILLER_0_19_15
*1108 FILLER_0_19_151
*1109 FILLER_0_19_166
*1110 FILLER_0_19_172
*1111 FILLER_0_19_182
*1112 FILLER_0_19_194
*1113 FILLER_0_19_202
*1114 FILLER_0_19_211
*1115 FILLER_0_19_221
*1116 FILLER_0_19_228
*1117 FILLER_0_19_258
*1118 FILLER_0_19_264
*1119 FILLER_0_19_27
*1120 FILLER_0_19_274
*1121 FILLER_0_19_279
*1122 FILLER_0_19_285
*1123 FILLER_0_19_291
*1124 FILLER_0_19_297
*1125 FILLER_0_19_3
*1126 FILLER_0_19_309
*1127 FILLER_0_19_331
*1128 FILLER_0_19_335
*1129 FILLER_0_19_340
*1130 FILLER_0_19_348
*1131 FILLER_0_19_39
*1132 FILLER_0_19_51
*1133 FILLER_0_19_55
*1134 FILLER_0_19_57
*1135 FILLER_0_19_69
*1136 FILLER_0_19_81
*1137 FILLER_0_19_93
*1138 FILLER_0_1_105
*1139 FILLER_0_1_111
*1140 FILLER_0_1_113
*1141 FILLER_0_1_125
*1142 FILLER_0_1_137
*1143 FILLER_0_1_149
*1144 FILLER_0_1_15
*1145 FILLER_0_1_161
*1146 FILLER_0_1_167
*1147 FILLER_0_1_169
*1148 FILLER_0_1_181
*1149 FILLER_0_1_193
*1150 FILLER_0_1_205
*1151 FILLER_0_1_217
*1152 FILLER_0_1_223
*1153 FILLER_0_1_225
*1154 FILLER_0_1_237
*1155 FILLER_0_1_249
*1156 FILLER_0_1_261
*1157 FILLER_0_1_27
*1158 FILLER_0_1_273
*1159 FILLER_0_1_279
*1160 FILLER_0_1_281
*1161 FILLER_0_1_293
*1162 FILLER_0_1_3
*1163 FILLER_0_1_305
*1164 FILLER_0_1_317
*1165 FILLER_0_1_329
*1166 FILLER_0_1_335
*1167 FILLER_0_1_337
*1168 FILLER_0_1_349
*1169 FILLER_0_1_39
*1170 FILLER_0_1_51
*1171 FILLER_0_1_55
*1172 FILLER_0_1_57
*1173 FILLER_0_1_69
*1174 FILLER_0_1_81
*1175 FILLER_0_1_93
*1176 FILLER_0_20_109
*1177 FILLER_0_20_121
*1178 FILLER_0_20_133
*1179 FILLER_0_20_139
*1180 FILLER_0_20_149
*1181 FILLER_0_20_15
*1182 FILLER_0_20_158
*1183 FILLER_0_20_175
*1184 FILLER_0_20_191
*1185 FILLER_0_20_204
*1186 FILLER_0_20_214
*1187 FILLER_0_20_218
*1188 FILLER_0_20_251
*1189 FILLER_0_20_27
*1190 FILLER_0_20_29
*1191 FILLER_0_20_293
*1192 FILLER_0_20_3
*1193 FILLER_0_20_302
*1194 FILLER_0_20_334
*1195 FILLER_0_20_41
*1196 FILLER_0_20_53
*1197 FILLER_0_20_65
*1198 FILLER_0_20_77
*1199 FILLER_0_20_83
*1200 FILLER_0_20_85
*1201 FILLER_0_20_97
*1202 FILLER_0_21_106
*1203 FILLER_0_21_113
*1204 FILLER_0_21_133
*1205 FILLER_0_21_145
*1206 FILLER_0_21_15
*1207 FILLER_0_21_152
*1208 FILLER_0_21_163
*1209 FILLER_0_21_167
*1210 FILLER_0_21_169
*1211 FILLER_0_21_181
*1212 FILLER_0_21_194
*1213 FILLER_0_21_202
*1214 FILLER_0_21_219
*1215 FILLER_0_21_223
*1216 FILLER_0_21_248
*1217 FILLER_0_21_252
*1218 FILLER_0_21_257
*1219 FILLER_0_21_269
*1220 FILLER_0_21_27
*1221 FILLER_0_21_277
*1222 FILLER_0_21_281
*1223 FILLER_0_21_287
*1224 FILLER_0_21_296
*1225 FILLER_0_21_3
*1226 FILLER_0_21_308
*1227 FILLER_0_21_314
*1228 FILLER_0_21_323
*1229 FILLER_0_21_330
*1230 FILLER_0_21_335
*1231 FILLER_0_21_337
*1232 FILLER_0_21_349
*1233 FILLER_0_21_39
*1234 FILLER_0_21_45
*1235 FILLER_0_21_52
*1236 FILLER_0_21_57
*1237 FILLER_0_21_69
*1238 FILLER_0_21_81
*1239 FILLER_0_22_106
*1240 FILLER_0_22_120
*1241 FILLER_0_22_126
*1242 FILLER_0_22_15
*1243 FILLER_0_22_165
*1244 FILLER_0_22_173
*1245 FILLER_0_22_195
*1246 FILLER_0_22_197
*1247 FILLER_0_22_222
*1248 FILLER_0_22_247
*1249 FILLER_0_22_251
*1250 FILLER_0_22_253
*1251 FILLER_0_22_261
*1252 FILLER_0_22_265
*1253 FILLER_0_22_27
*1254 FILLER_0_22_274
*1255 FILLER_0_22_278
*1256 FILLER_0_22_285
*1257 FILLER_0_22_29
*1258 FILLER_0_22_290
*1259 FILLER_0_22_3
*1260 FILLER_0_22_306
*1261 FILLER_0_22_321
*1262 FILLER_0_22_334
*1263 FILLER_0_22_52
*1264 FILLER_0_22_64
*1265 FILLER_0_22_68
*1266 FILLER_0_22_74
*1267 FILLER_0_22_80
*1268 FILLER_0_22_85
*1269 FILLER_0_22_89
*1270 FILLER_0_22_93
*1271 FILLER_0_23_104
*1272 FILLER_0_23_11
*1273 FILLER_0_23_117
*1274 FILLER_0_23_124
*1275 FILLER_0_23_132
*1276 FILLER_0_23_136
*1277 FILLER_0_23_144
*1278 FILLER_0_23_154
*1279 FILLER_0_23_166
*1280 FILLER_0_23_189
*1281 FILLER_0_23_196
*1282 FILLER_0_23_21
*1283 FILLER_0_23_225
*1284 FILLER_0_23_233
*1285 FILLER_0_23_237
*1286 FILLER_0_23_243
*1287 FILLER_0_23_27
*1288 FILLER_0_23_3
*1289 FILLER_0_23_313
*1290 FILLER_0_23_33
*1291 FILLER_0_23_335
*1292 FILLER_0_23_337
*1293 FILLER_0_23_349
*1294 FILLER_0_23_37
*1295 FILLER_0_23_49
*1296 FILLER_0_23_73
*1297 FILLER_0_23_77
*1298 FILLER_0_23_81
*1299 FILLER_0_23_89
*1300 FILLER_0_24_106
*1301 FILLER_0_24_11
*1302 FILLER_0_24_113
*1303 FILLER_0_24_117
*1304 FILLER_0_24_141
*1305 FILLER_0_24_16
*1306 FILLER_0_24_191
*1307 FILLER_0_24_195
*1308 FILLER_0_24_213
*1309 FILLER_0_24_247
*1310 FILLER_0_24_251
*1311 FILLER_0_24_253
*1312 FILLER_0_24_265
*1313 FILLER_0_24_27
*1314 FILLER_0_24_287
*1315 FILLER_0_24_29
*1316 FILLER_0_24_3
*1317 FILLER_0_24_350
*1318 FILLER_0_24_50
*1319 FILLER_0_24_57
*1320 FILLER_0_24_65
*1321 FILLER_0_24_82
*1322 FILLER_0_24_88
*1323 FILLER_0_25_103
*1324 FILLER_0_25_111
*1325 FILLER_0_25_113
*1326 FILLER_0_25_120
*1327 FILLER_0_25_132
*1328 FILLER_0_25_140
*1329 FILLER_0_25_144
*1330 FILLER_0_25_153
*1331 FILLER_0_25_16
*1332 FILLER_0_25_165
*1333 FILLER_0_25_169
*1334 FILLER_0_25_196
*1335 FILLER_0_25_202
*1336 FILLER_0_25_214
*1337 FILLER_0_25_222
*1338 FILLER_0_25_238
*1339 FILLER_0_25_252
*1340 FILLER_0_25_271
*1341 FILLER_0_25_281
*1342 FILLER_0_25_293
*1343 FILLER_0_25_297
*1344 FILLER_0_25_3
*1345 FILLER_0_25_322
*1346 FILLER_0_25_334
*1347 FILLER_0_25_337
*1348 FILLER_0_25_349
*1349 FILLER_0_25_36
*1350 FILLER_0_25_48
*1351 FILLER_0_25_57
*1352 FILLER_0_25_70
*1353 FILLER_0_25_79
*1354 FILLER_0_25_91
*1355 FILLER_0_25_95
*1356 FILLER_0_26_107
*1357 FILLER_0_26_113
*1358 FILLER_0_26_124
*1359 FILLER_0_26_146
*1360 FILLER_0_26_170
*1361 FILLER_0_26_178
*1362 FILLER_0_26_185
*1363 FILLER_0_26_193
*1364 FILLER_0_26_213
*1365 FILLER_0_26_231
*1366 FILLER_0_26_261
*1367 FILLER_0_26_265
*1368 FILLER_0_26_275
*1369 FILLER_0_26_29
*1370 FILLER_0_26_3
*1371 FILLER_0_26_303
*1372 FILLER_0_26_307
*1373 FILLER_0_26_309
*1374 FILLER_0_26_313
*1375 FILLER_0_26_321
*1376 FILLER_0_26_325
*1377 FILLER_0_26_333
*1378 FILLER_0_26_37
*1379 FILLER_0_26_58
*1380 FILLER_0_26_70
*1381 FILLER_0_26_82
*1382 FILLER_0_26_90
*1383 FILLER_0_27_105
*1384 FILLER_0_27_111
*1385 FILLER_0_27_113
*1386 FILLER_0_27_125
*1387 FILLER_0_27_129
*1388 FILLER_0_27_133
*1389 FILLER_0_27_139
*1390 FILLER_0_27_14
*1391 FILLER_0_27_156
*1392 FILLER_0_27_184
*1393 FILLER_0_27_190
*1394 FILLER_0_27_202
*1395 FILLER_0_27_214
*1396 FILLER_0_27_22
*1397 FILLER_0_27_222
*1398 FILLER_0_27_245
*1399 FILLER_0_27_273
*1400 FILLER_0_27_279
*1401 FILLER_0_27_297
*1402 FILLER_0_27_3
*1403 FILLER_0_27_305
*1404 FILLER_0_27_311
*1405 FILLER_0_27_323
*1406 FILLER_0_27_335
*1407 FILLER_0_27_337
*1408 FILLER_0_27_39
*1409 FILLER_0_27_51
*1410 FILLER_0_27_55
*1411 FILLER_0_27_57
*1412 FILLER_0_27_65
*1413 FILLER_0_27_87
*1414 FILLER_0_27_99
*1415 FILLER_0_28_111
*1416 FILLER_0_28_128
*1417 FILLER_0_28_137
*1418 FILLER_0_28_144
*1419 FILLER_0_28_158
*1420 FILLER_0_28_164
*1421 FILLER_0_28_173
*1422 FILLER_0_28_179
*1423 FILLER_0_28_197
*1424 FILLER_0_28_209
*1425 FILLER_0_28_219
*1426 FILLER_0_28_23
*1427 FILLER_0_28_234
*1428 FILLER_0_28_259
*1429 FILLER_0_28_27
*1430 FILLER_0_28_271
*1431 FILLER_0_28_279
*1432 FILLER_0_28_29
*1433 FILLER_0_28_290
*1434 FILLER_0_28_3
*1435 FILLER_0_28_304
*1436 FILLER_0_28_322
*1437 FILLER_0_28_328
*1438 FILLER_0_28_334
*1439 FILLER_0_28_40
*1440 FILLER_0_28_48
*1441 FILLER_0_28_64
*1442 FILLER_0_28_76
*1443 FILLER_0_28_85
*1444 FILLER_0_29_102
*1445 FILLER_0_29_110
*1446 FILLER_0_29_113
*1447 FILLER_0_29_124
*1448 FILLER_0_29_128
*1449 FILLER_0_29_135
*1450 FILLER_0_29_15
*1451 FILLER_0_29_159
*1452 FILLER_0_29_165
*1453 FILLER_0_29_173
*1454 FILLER_0_29_185
*1455 FILLER_0_29_189
*1456 FILLER_0_29_201
*1457 FILLER_0_29_208
*1458 FILLER_0_29_216
*1459 FILLER_0_29_225
*1460 FILLER_0_29_251
*1461 FILLER_0_29_27
*1462 FILLER_0_29_272
*1463 FILLER_0_29_297
*1464 FILLER_0_29_3
*1465 FILLER_0_29_327
*1466 FILLER_0_29_345
*1467 FILLER_0_29_40
*1468 FILLER_0_29_55
*1469 FILLER_0_29_57
*1470 FILLER_0_29_7
*1471 FILLER_0_29_90
*1472 FILLER_0_29_94
*1473 FILLER_0_2_109
*1474 FILLER_0_2_121
*1475 FILLER_0_2_133
*1476 FILLER_0_2_139
*1477 FILLER_0_2_141
*1478 FILLER_0_2_15
*1479 FILLER_0_2_153
*1480 FILLER_0_2_165
*1481 FILLER_0_2_177
*1482 FILLER_0_2_189
*1483 FILLER_0_2_195
*1484 FILLER_0_2_197
*1485 FILLER_0_2_209
*1486 FILLER_0_2_221
*1487 FILLER_0_2_233
*1488 FILLER_0_2_245
*1489 FILLER_0_2_251
*1490 FILLER_0_2_253
*1491 FILLER_0_2_265
*1492 FILLER_0_2_27
*1493 FILLER_0_2_277
*1494 FILLER_0_2_289
*1495 FILLER_0_2_29
*1496 FILLER_0_2_3
*1497 FILLER_0_2_301
*1498 FILLER_0_2_307
*1499 FILLER_0_2_309
*1500 FILLER_0_2_321
*1501 FILLER_0_2_333
*1502 FILLER_0_2_345
*1503 FILLER_0_2_41
*1504 FILLER_0_2_53
*1505 FILLER_0_2_65
*1506 FILLER_0_2_77
*1507 FILLER_0_2_83
*1508 FILLER_0_2_85
*1509 FILLER_0_2_97
*1510 FILLER_0_30_103
*1511 FILLER_0_30_118
*1512 FILLER_0_30_130
*1513 FILLER_0_30_134
*1514 FILLER_0_30_147
*1515 FILLER_0_30_155
*1516 FILLER_0_30_172
*1517 FILLER_0_30_18
*1518 FILLER_0_30_197
*1519 FILLER_0_30_256
*1520 FILLER_0_30_26
*1521 FILLER_0_30_284
*1522 FILLER_0_30_296
*1523 FILLER_0_30_3
*1524 FILLER_0_30_317
*1525 FILLER_0_30_334
*1526 FILLER_0_30_44
*1527 FILLER_0_30_63
*1528 FILLER_0_30_70
*1529 FILLER_0_30_89
*1530 FILLER_0_30_9
*1531 FILLER_0_30_99
*1532 FILLER_0_31_109
*1533 FILLER_0_31_113
*1534 FILLER_0_31_125
*1535 FILLER_0_31_129
*1536 FILLER_0_31_143
*1537 FILLER_0_31_162
*1538 FILLER_0_31_176
*1539 FILLER_0_31_186
*1540 FILLER_0_31_198
*1541 FILLER_0_31_210
*1542 FILLER_0_31_222
*1543 FILLER_0_31_225
*1544 FILLER_0_31_24
*1545 FILLER_0_31_244
*1546 FILLER_0_31_261
*1547 FILLER_0_31_273
*1548 FILLER_0_31_279
*1549 FILLER_0_31_281
*1550 FILLER_0_31_3
*1551 FILLER_0_31_308
*1552 FILLER_0_31_32
*1553 FILLER_0_31_333
*1554 FILLER_0_31_345
*1555 FILLER_0_31_50
*1556 FILLER_0_31_57
*1557 FILLER_0_31_69
*1558 FILLER_0_31_81
*1559 FILLER_0_31_89
*1560 FILLER_0_31_93
*1561 FILLER_0_32_103
*1562 FILLER_0_32_107
*1563 FILLER_0_32_121
*1564 FILLER_0_32_133
*1565 FILLER_0_32_138
*1566 FILLER_0_32_148
*1567 FILLER_0_32_15
*1568 FILLER_0_32_160
*1569 FILLER_0_32_172
*1570 FILLER_0_32_192
*1571 FILLER_0_32_197
*1572 FILLER_0_32_208
*1573 FILLER_0_32_219
*1574 FILLER_0_32_226
*1575 FILLER_0_32_238
*1576 FILLER_0_32_248
*1577 FILLER_0_32_259
*1578 FILLER_0_32_263
*1579 FILLER_0_32_29
*1580 FILLER_0_32_293
*1581 FILLER_0_32_3
*1582 FILLER_0_32_305
*1583 FILLER_0_32_318
*1584 FILLER_0_32_336
*1585 FILLER_0_32_346
*1586 FILLER_0_32_350
*1587 FILLER_0_32_41
*1588 FILLER_0_32_55
*1589 FILLER_0_32_72
*1590 FILLER_0_32_83
*1591 FILLER_0_32_97
*1592 FILLER_0_33_101
*1593 FILLER_0_33_109
*1594 FILLER_0_33_113
*1595 FILLER_0_33_126
*1596 FILLER_0_33_142
*1597 FILLER_0_33_15
*1598 FILLER_0_33_154
*1599 FILLER_0_33_164
*1600 FILLER_0_33_176
*1601 FILLER_0_33_195
*1602 FILLER_0_33_214
*1603 FILLER_0_33_222
*1604 FILLER_0_33_257
*1605 FILLER_0_33_27
*1606 FILLER_0_33_272
*1607 FILLER_0_33_281
*1608 FILLER_0_33_285
*1609 FILLER_0_33_293
*1610 FILLER_0_33_3
*1611 FILLER_0_33_301
*1612 FILLER_0_33_306
*1613 FILLER_0_33_315
*1614 FILLER_0_33_337
*1615 FILLER_0_33_42
*1616 FILLER_0_33_54
*1617 FILLER_0_33_57
*1618 FILLER_0_33_69
*1619 FILLER_0_33_81
*1620 FILLER_0_33_97
*1621 FILLER_0_34_105
*1622 FILLER_0_34_120
*1623 FILLER_0_34_128
*1624 FILLER_0_34_139
*1625 FILLER_0_34_141
*1626 FILLER_0_34_147
*1627 FILLER_0_34_15
*1628 FILLER_0_34_153
*1629 FILLER_0_34_159
*1630 FILLER_0_34_163
*1631 FILLER_0_34_167
*1632 FILLER_0_34_179
*1633 FILLER_0_34_200
*1634 FILLER_0_34_208
*1635 FILLER_0_34_227
*1636 FILLER_0_34_231
*1637 FILLER_0_34_237
*1638 FILLER_0_34_241
*1639 FILLER_0_34_250
*1640 FILLER_0_34_253
*1641 FILLER_0_34_259
*1642 FILLER_0_34_269
*1643 FILLER_0_34_27
*1644 FILLER_0_34_281
*1645 FILLER_0_34_29
*1646 FILLER_0_34_293
*1647 FILLER_0_34_3
*1648 FILLER_0_34_303
*1649 FILLER_0_34_307
*1650 FILLER_0_34_323
*1651 FILLER_0_34_345
*1652 FILLER_0_34_35
*1653 FILLER_0_34_44
*1654 FILLER_0_34_56
*1655 FILLER_0_34_62
*1656 FILLER_0_34_85
*1657 FILLER_0_34_97
*1658 FILLER_0_35_111
*1659 FILLER_0_35_113
*1660 FILLER_0_35_123
*1661 FILLER_0_35_129
*1662 FILLER_0_35_138
*1663 FILLER_0_35_15
*1664 FILLER_0_35_150
*1665 FILLER_0_35_163
*1666 FILLER_0_35_169
*1667 FILLER_0_35_179
*1668 FILLER_0_35_191
*1669 FILLER_0_35_195
*1670 FILLER_0_35_213
*1671 FILLER_0_35_218
*1672 FILLER_0_35_225
*1673 FILLER_0_35_231
*1674 FILLER_0_35_244
*1675 FILLER_0_35_257
*1676 FILLER_0_35_265
*1677 FILLER_0_35_27
*1678 FILLER_0_35_274