*SPEF "ieee 1481-1999"
*DESIGN "tt_um_if"
*DATE "11:11:11 Fri 11 11, 1111"
*VENDOR "OpenRCX"
*PROGRAM "Parallel Extraction"
*VERSION "1.0"
*DESIGN_FLOW "NAME_SCOPE LOCAL" "PIN_CAP NONE"
*DIVIDER /
*DELIMITER :
*BUS_DELIMITER []
*T_UNIT 1 NS
*C_UNIT 1 PF
*R_UNIT 1 OHM
*L_UNIT 1 HENRY

*NAME_MAP
*3 clk
*4 ena
*5 rst_n
*6 ui_in[0]
*7 ui_in[1]
*8 ui_in[2]
*9 ui_in[3]
*10 ui_in[4]
*11 ui_in[5]
*12 ui_in[6]
*13 ui_in[7]
*14 uio_in[0]
*15 uio_in[1]
*16 uio_in[2]
*17 uio_in[3]
*18 uio_in[4]
*19 uio_in[5]
*20 uio_in[6]
*21 uio_in[7]
*22 net17
*23 net18
*24 net19
*25 net20
*26 net21
*27 net22
*28 net23
*29 net24
*30 net10
*31 net11
*32 net12
*33 net13
*34 net14
*35 net15
*36 net16
*37 uio_out[7]
*38 uo_out[0]
*39 uo_out[1]
*40 uo_out[2]
*41 uo_out[3]
*42 uo_out[4]
*43 uo_out[5]
*44 uo_out[6]
*45 uo_out[7]
*46 _000_
*47 _001_
*48 _002_
*49 _003_
*50 _004_
*51 _005_
*52 _006_
*53 _007_
*54 _008_
*55 _009_
*56 _010_
*57 _011_
*58 _012_
*59 _013_
*60 _014_
*61 _015_
*62 _016_
*63 _017_
*64 _018_
*65 _019_
*66 _020_
*67 _021_
*68 _022_
*69 _023_
*70 _024_
*71 _025_
*72 _026_
*73 _027_
*74 _028_
*75 _029_
*76 _030_
*77 _031_
*78 _032_
*79 _033_
*80 _034_
*81 _035_
*82 _036_
*83 _037_
*84 _038_
*85 _039_
*86 _040_
*87 _041_
*88 _042_
*89 _043_
*90 _044_
*91 _045_
*92 _046_
*93 _047_
*94 _048_
*95 _049_
*96 _050_
*97 clknet_0_clk
*98 clknet_1_0__leaf_clk
*99 clknet_1_1__leaf_clk
*100 if_neuron1\.spike
*101 net1
*102 net2
*103 net3
*104 net4
*105 net5
*106 net6
*107 net7
*108 net8
*109 net9
*110 FILLER_0_0_109
*111 FILLER_0_0_113
*112 FILLER_0_0_125
*113 FILLER_0_0_137
*114 FILLER_0_0_141
*115 FILLER_0_0_15
*116 FILLER_0_0_153
*117 FILLER_0_0_165
*118 FILLER_0_0_169
*119 FILLER_0_0_181
*120 FILLER_0_0_193
*121 FILLER_0_0_197
*122 FILLER_0_0_209
*123 FILLER_0_0_221
*124 FILLER_0_0_225
*125 FILLER_0_0_237
*126 FILLER_0_0_249
*127 FILLER_0_0_253
*128 FILLER_0_0_265
*129 FILLER_0_0_27
*130 FILLER_0_0_277
*131 FILLER_0_0_281
*132 FILLER_0_0_29
*133 FILLER_0_0_293
*134 FILLER_0_0_3
*135 FILLER_0_0_305
*136 FILLER_0_0_309
*137 FILLER_0_0_321
*138 FILLER_0_0_333
*139 FILLER_0_0_337
*140 FILLER_0_0_349
*141 FILLER_0_0_41
*142 FILLER_0_0_53
*143 FILLER_0_0_57
*144 FILLER_0_0_69
*145 FILLER_0_0_81
*146 FILLER_0_0_85
*147 FILLER_0_0_97
*148 FILLER_0_10_109
*149 FILLER_0_10_121
*150 FILLER_0_10_133
*151 FILLER_0_10_139
*152 FILLER_0_10_141
*153 FILLER_0_10_15
*154 FILLER_0_10_153
*155 FILLER_0_10_165
*156 FILLER_0_10_177
*157 FILLER_0_10_189
*158 FILLER_0_10_195
*159 FILLER_0_10_197
*160 FILLER_0_10_209
*161 FILLER_0_10_221
*162 FILLER_0_10_233
*163 FILLER_0_10_245
*164 FILLER_0_10_251
*165 FILLER_0_10_253
*166 FILLER_0_10_265
*167 FILLER_0_10_27
*168 FILLER_0_10_277
*169 FILLER_0_10_289
*170 FILLER_0_10_29
*171 FILLER_0_10_3
*172 FILLER_0_10_301
*173 FILLER_0_10_307
*174 FILLER_0_10_309
*175 FILLER_0_10_321
*176 FILLER_0_10_333
*177 FILLER_0_10_345
*178 FILLER_0_10_41
*179 FILLER_0_10_53
*180 FILLER_0_10_65
*181 FILLER_0_10_77
*182 FILLER_0_10_83
*183 FILLER_0_10_85
*184 FILLER_0_10_97
*185 FILLER_0_11_105
*186 FILLER_0_11_111
*187 FILLER_0_11_113
*188 FILLER_0_11_125
*189 FILLER_0_11_137
*190 FILLER_0_11_149
*191 FILLER_0_11_15
*192 FILLER_0_11_161
*193 FILLER_0_11_167
*194 FILLER_0_11_169
*195 FILLER_0_11_181
*196 FILLER_0_11_193
*197 FILLER_0_11_205
*198 FILLER_0_11_217
*199 FILLER_0_11_223
*200 FILLER_0_11_225
*201 FILLER_0_11_237
*202 FILLER_0_11_249
*203 FILLER_0_11_261
*204 FILLER_0_11_27
*205 FILLER_0_11_273
*206 FILLER_0_11_279
*207 FILLER_0_11_281
*208 FILLER_0_11_293
*209 FILLER_0_11_3
*210 FILLER_0_11_305
*211 FILLER_0_11_317
*212 FILLER_0_11_329
*213 FILLER_0_11_335
*214 FILLER_0_11_337
*215 FILLER_0_11_349
*216 FILLER_0_11_39
*217 FILLER_0_11_51
*218 FILLER_0_11_55
*219 FILLER_0_11_57
*220 FILLER_0_11_69
*221 FILLER_0_11_81
*222 FILLER_0_11_93
*223 FILLER_0_12_109
*224 FILLER_0_12_121
*225 FILLER_0_12_133
*226 FILLER_0_12_139
*227 FILLER_0_12_141
*228 FILLER_0_12_15
*229 FILLER_0_12_153
*230 FILLER_0_12_165
*231 FILLER_0_12_177
*232 FILLER_0_12_189
*233 FILLER_0_12_195
*234 FILLER_0_12_197
*235 FILLER_0_12_209
*236 FILLER_0_12_221
*237 FILLER_0_12_233
*238 FILLER_0_12_245
*239 FILLER_0_12_251
*240 FILLER_0_12_253
*241 FILLER_0_12_265
*242 FILLER_0_12_27
*243 FILLER_0_12_277
*244 FILLER_0_12_289
*245 FILLER_0_12_29
*246 FILLER_0_12_3
*247 FILLER_0_12_301
*248 FILLER_0_12_307
*249 FILLER_0_12_309
*250 FILLER_0_12_321
*251 FILLER_0_12_333
*252 FILLER_0_12_345
*253 FILLER_0_12_41
*254 FILLER_0_12_53
*255 FILLER_0_12_65
*256 FILLER_0_12_77
*257 FILLER_0_12_83
*258 FILLER_0_12_85
*259 FILLER_0_12_97
*260 FILLER_0_13_105
*261 FILLER_0_13_111
*262 FILLER_0_13_113
*263 FILLER_0_13_125
*264 FILLER_0_13_137
*265 FILLER_0_13_149
*266 FILLER_0_13_15
*267 FILLER_0_13_161
*268 FILLER_0_13_167
*269 FILLER_0_13_169
*270 FILLER_0_13_181
*271 FILLER_0_13_193
*272 FILLER_0_13_205
*273 FILLER_0_13_217
*274 FILLER_0_13_223
*275 FILLER_0_13_225
*276 FILLER_0_13_237
*277 FILLER_0_13_249
*278 FILLER_0_13_261
*279 FILLER_0_13_27
*280 FILLER_0_13_273
*281 FILLER_0_13_279
*282 FILLER_0_13_281
*283 FILLER_0_13_293
*284 FILLER_0_13_3
*285 FILLER_0_13_305
*286 FILLER_0_13_317
*287 FILLER_0_13_329
*288 FILLER_0_13_335
*289 FILLER_0_13_337
*290 FILLER_0_13_349
*291 FILLER_0_13_39
*292 FILLER_0_13_51
*293 FILLER_0_13_55
*294 FILLER_0_13_57
*295 FILLER_0_13_69
*296 FILLER_0_13_81
*297 FILLER_0_13_93
*298 FILLER_0_14_109
*299 FILLER_0_14_121
*300 FILLER_0_14_133
*301 FILLER_0_14_139
*302 FILLER_0_14_141
*303 FILLER_0_14_15
*304 FILLER_0_14_153
*305 FILLER_0_14_165
*306 FILLER_0_14_177
*307 FILLER_0_14_189
*308 FILLER_0_14_195
*309 FILLER_0_14_197
*310 FILLER_0_14_209
*311 FILLER_0_14_221
*312 FILLER_0_14_233
*313 FILLER_0_14_245
*314 FILLER_0_14_251
*315 FILLER_0_14_253
*316 FILLER_0_14_265
*317 FILLER_0_14_27
*318 FILLER_0_14_277
*319 FILLER_0_14_289
*320 FILLER_0_14_29
*321 FILLER_0_14_3
*322 FILLER_0_14_301
*323 FILLER_0_14_307
*324 FILLER_0_14_309
*325 FILLER_0_14_321
*326 FILLER_0_14_333
*327 FILLER_0_14_345
*328 FILLER_0_14_41
*329 FILLER_0_14_53
*330 FILLER_0_14_65
*331 FILLER_0_14_77
*332 FILLER_0_14_83
*333 FILLER_0_14_85
*334 FILLER_0_14_97
*335 FILLER_0_15_105
*336 FILLER_0_15_111
*337 FILLER_0_15_113
*338 FILLER_0_15_125
*339 FILLER_0_15_137
*340 FILLER_0_15_149
*341 FILLER_0_15_15
*342 FILLER_0_15_161
*343 FILLER_0_15_167
*344 FILLER_0_15_169
*345 FILLER_0_15_181
*346 FILLER_0_15_193
*347 FILLER_0_15_205
*348 FILLER_0_15_217
*349 FILLER_0_15_223
*350 FILLER_0_15_225
*351 FILLER_0_15_237
*352 FILLER_0_15_249
*353 FILLER_0_15_261
*354 FILLER_0_15_27
*355 FILLER_0_15_273
*356 FILLER_0_15_279
*357 FILLER_0_15_281
*358 FILLER_0_15_293
*359 FILLER_0_15_3
*360 FILLER_0_15_305
*361 FILLER_0_15_317
*362 FILLER_0_15_329
*363 FILLER_0_15_335
*364 FILLER_0_15_337
*365 FILLER_0_15_349
*366 FILLER_0_15_39
*367 FILLER_0_15_51
*368 FILLER_0_15_55
*369 FILLER_0_15_57
*370 FILLER_0_15_69
*371 FILLER_0_15_81
*372 FILLER_0_15_93
*373 FILLER_0_16_109
*374 FILLER_0_16_121
*375 FILLER_0_16_133
*376 FILLER_0_16_139
*377 FILLER_0_16_141
*378 FILLER_0_16_15
*379 FILLER_0_16_153
*380 FILLER_0_16_165
*381 FILLER_0_16_177
*382 FILLER_0_16_189
*383 FILLER_0_16_195
*384 FILLER_0_16_197
*385 FILLER_0_16_209
*386 FILLER_0_16_221
*387 FILLER_0_16_233
*388 FILLER_0_16_245
*389 FILLER_0_16_251
*390 FILLER_0_16_253
*391 FILLER_0_16_265
*392 FILLER_0_16_27
*393 FILLER_0_16_277
*394 FILLER_0_16_289
*395 FILLER_0_16_29
*396 FILLER_0_16_3
*397 FILLER_0_16_301
*398 FILLER_0_16_307
*399 FILLER_0_16_309
*400 FILLER_0_16_321
*401 FILLER_0_16_333
*402 FILLER_0_16_345
*403 FILLER_0_16_41
*404 FILLER_0_16_53
*405 FILLER_0_16_65
*406 FILLER_0_16_77
*407 FILLER_0_16_83
*408 FILLER_0_16_85
*409 FILLER_0_16_97
*410 FILLER_0_17_105
*411 FILLER_0_17_111
*412 FILLER_0_17_113
*413 FILLER_0_17_125
*414 FILLER_0_17_137
*415 FILLER_0_17_149
*416 FILLER_0_17_15
*417 FILLER_0_17_161
*418 FILLER_0_17_167
*419 FILLER_0_17_169
*420 FILLER_0_17_181
*421 FILLER_0_17_193
*422 FILLER_0_17_205
*423 FILLER_0_17_217
*424 FILLER_0_17_223
*425 FILLER_0_17_225
*426 FILLER_0_17_237
*427 FILLER_0_17_249
*428 FILLER_0_17_261
*429 FILLER_0_17_27
*430 FILLER_0_17_273
*431 FILLER_0_17_279
*432 FILLER_0_17_281
*433 FILLER_0_17_293
*434 FILLER_0_17_3
*435 FILLER_0_17_305
*436 FILLER_0_17_317
*437 FILLER_0_17_329
*438 FILLER_0_17_335
*439 FILLER_0_17_337
*440 FILLER_0_17_349
*441 FILLER_0_17_39
*442 FILLER_0_17_51
*443 FILLER_0_17_55
*444 FILLER_0_17_57
*445 FILLER_0_17_69
*446 FILLER_0_17_81
*447 FILLER_0_17_93
*448 FILLER_0_18_109
*449 FILLER_0_18_121
*450 FILLER_0_18_133
*451 FILLER_0_18_139
*452 FILLER_0_18_141
*453 FILLER_0_18_15
*454 FILLER_0_18_153
*455 FILLER_0_18_165
*456 FILLER_0_18_177
*457 FILLER_0_18_189
*458 FILLER_0_18_195
*459 FILLER_0_18_197
*460 FILLER_0_18_209
*461 FILLER_0_18_221
*462 FILLER_0_18_233
*463 FILLER_0_18_245
*464 FILLER_0_18_251
*465 FILLER_0_18_253
*466 FILLER_0_18_265
*467 FILLER_0_18_27
*468 FILLER_0_18_277
*469 FILLER_0_18_289
*470 FILLER_0_18_29
*471 FILLER_0_18_3
*472 FILLER_0_18_301
*473 FILLER_0_18_307
*474 FILLER_0_18_309
*475 FILLER_0_18_321
*476 FILLER_0_18_333
*477 FILLER_0_18_345
*478 FILLER_0_18_41
*479 FILLER_0_18_53
*480 FILLER_0_18_65
*481 FILLER_0_18_77
*482 FILLER_0_18_83
*483 FILLER_0_18_85
*484 FILLER_0_18_97
*485 FILLER_0_19_105
*486 FILLER_0_19_111
*487 FILLER_0_19_113
*488 FILLER_0_19_125
*489 FILLER_0_19_137
*490 FILLER_0_19_149
*491 FILLER_0_19_15
*492 FILLER_0_19_161
*493 FILLER_0_19_167
*494 FILLER_0_19_169
*495 FILLER_0_19_181
*496 FILLER_0_19_193
*497 FILLER_0_19_205
*498 FILLER_0_19_217
*499 FILLER_0_19_223
*500 FILLER_0_19_225
*501 FILLER_0_19_237
*502 FILLER_0_19_249
*503 FILLER_0_19_261
*504 FILLER_0_19_27
*505 FILLER_0_19_273
*506 FILLER_0_19_279
*507 FILLER_0_19_281
*508 FILLER_0_19_293
*509 FILLER_0_19_3
*510 FILLER_0_19_305
*511 FILLER_0_19_317
*512 FILLER_0_19_329
*513 FILLER_0_19_335
*514 FILLER_0_19_337
*515 FILLER_0_19_349
*516 FILLER_0_19_39
*517 FILLER_0_19_51
*518 FILLER_0_19_55
*519 FILLER_0_19_57
*520 FILLER_0_19_69
*521 FILLER_0_19_81
*522 FILLER_0_19_93
*523 FILLER_0_1_105
*524 FILLER_0_1_111
*525 FILLER_0_1_113
*526 FILLER_0_1_125
*527 FILLER_0_1_137
*528 FILLER_0_1_149
*529 FILLER_0_1_15
*530 FILLER_0_1_161
*531 FILLER_0_1_167
*532 FILLER_0_1_169
*533 FILLER_0_1_181
*534 FILLER_0_1_193
*535 FILLER_0_1_205
*536 FILLER_0_1_217
*537 FILLER_0_1_223
*538 FILLER_0_1_225
*539 FILLER_0_1_237
*540 FILLER_0_1_249
*541 FILLER_0_1_261
*542 FILLER_0_1_27
*543 FILLER_0_1_273
*544 FILLER_0_1_279
*545 FILLER_0_1_281
*546 FILLER_0_1_293
*547 FILLER_0_1_3
*548 FILLER_0_1_305
*549 FILLER_0_1_317
*550 FILLER_0_1_329
*551 FILLER_0_1_335
*552 FILLER_0_1_337
*553 FILLER_0_1_349
*554 FILLER_0_1_39
*555 FILLER_0_1_51
*556 FILLER_0_1_55
*557 FILLER_0_1_57
*558 FILLER_0_1_69
*559 FILLER_0_1_81
*560 FILLER_0_1_93
*561 FILLER_0_20_109
*562 FILLER_0_20_121
*563 FILLER_0_20_133
*564 FILLER_0_20_139
*565 FILLER_0_20_141
*566 FILLER_0_20_15
*567 FILLER_0_20_153
*568 FILLER_0_20_165
*569 FILLER_0_20_177
*570 FILLER_0_20_189
*571 FILLER_0_20_195
*572 FILLER_0_20_197
*573 FILLER_0_20_209
*574 FILLER_0_20_221
*575 FILLER_0_20_233
*576 FILLER_0_20_245
*577 FILLER_0_20_251
*578 FILLER_0_20_253
*579 FILLER_0_20_265
*580 FILLER_0_20_27
*581 FILLER_0_20_277
*582 FILLER_0_20_289
*583 FILLER_0_20_29
*584 FILLER_0_20_3
*585 FILLER_0_20_301
*586 FILLER_0_20_307
*587 FILLER_0_20_309
*588 FILLER_0_20_321
*589 FILLER_0_20_333
*590 FILLER_0_20_345
*591 FILLER_0_20_41
*592 FILLER_0_20_53
*593 FILLER_0_20_65
*594 FILLER_0_20_77
*595 FILLER_0_20_83
*596 FILLER_0_20_85
*597 FILLER_0_20_97
*598 FILLER_0_21_105
*599 FILLER_0_21_111
*600 FILLER_0_21_113
*601 FILLER_0_21_125
*602 FILLER_0_21_137
*603 FILLER_0_21_149
*604 FILLER_0_21_15
*605 FILLER_0_21_161
*606 FILLER_0_21_167
*607 FILLER_0_21_169
*608 FILLER_0_21_181
*609 FILLER_0_21_193
*610 FILLER_0_21_205
*611 FILLER_0_21_217
*612 FILLER_0_21_223
*613 FILLER_0_21_225
*614 FILLER_0_21_237
*615 FILLER_0_21_249
*616 FILLER_0_21_261
*617 FILLER_0_21_27
*618 FILLER_0_21_273
*619 FILLER_0_21_279
*620 FILLER_0_21_281
*621 FILLER_0_21_293
*622 FILLER_0_21_3
*623 FILLER_0_21_305
*624 FILLER_0_21_317
*625 FILLER_0_21_329
*626 FILLER_0_21_335
*627 FILLER_0_21_337
*628 FILLER_0_21_349
*629 FILLER_0_21_39
*630 FILLER_0_21_51
*631 FILLER_0_21_55
*632 FILLER_0_21_57
*633 FILLER_0_21_69
*634 FILLER_0_21_81
*635 FILLER_0_21_93
*636 FILLER_0_22_109
*637 FILLER_0_22_121
*638 FILLER_0_22_133
*639 FILLER_0_22_139
*640 FILLER_0_22_141
*641 FILLER_0_22_15
*642 FILLER_0_22_153
*643 FILLER_0_22_165
*644 FILLER_0_22_177
*645 FILLER_0_22_189
*646 FILLER_0_22_195
*647 FILLER_0_22_197
*648 FILLER_0_22_209
*649 FILLER_0_22_221
*650 FILLER_0_22_233
*651 FILLER_0_22_245
*652 FILLER_0_22_251
*653 FILLER_0_22_253
*654 FILLER_0_22_265
*655 FILLER_0_22_27
*656 FILLER_0_22_277
*657 FILLER_0_22_289
*658 FILLER_0_22_29
*659 FILLER_0_22_3
*660 FILLER_0_22_301
*661 FILLER_0_22_307
*662 FILLER_0_22_309
*663 FILLER_0_22_321
*664 FILLER_0_22_333
*665 FILLER_0_22_345
*666 FILLER_0_22_41
*667 FILLER_0_22_53
*668 FILLER_0_22_65
*669 FILLER_0_22_77
*670 FILLER_0_22_83
*671 FILLER_0_22_85
*672 FILLER_0_22_97
*673 FILLER_0_23_105
*674 FILLER_0_23_111
*675 FILLER_0_23_113
*676 FILLER_0_23_125
*677 FILLER_0_23_137
*678 FILLER_0_23_149
*679 FILLER_0_23_15
*680 FILLER_0_23_161
*681 FILLER_0_23_167
*682 FILLER_0_23_169
*683 FILLER_0_23_181
*684 FILLER_0_23_193
*685 FILLER_0_23_205
*686 FILLER_0_23_217
*687 FILLER_0_23_223
*688 FILLER_0_23_225
*689 FILLER_0_23_237
*690 FILLER_0_23_249
*691 FILLER_0_23_261
*692 FILLER_0_23_27
*693 FILLER_0_23_273
*694 FILLER_0_23_279
*695 FILLER_0_23_281
*696 FILLER_0_23_293
*697 FILLER_0_23_3
*698 FILLER_0_23_305
*699 FILLER_0_23_317
*700 FILLER_0_23_329
*701 FILLER_0_23_335
*702 FILLER_0_23_337
*703 FILLER_0_23_349
*704 FILLER_0_23_39
*705 FILLER_0_23_51
*706 FILLER_0_23_55
*707 FILLER_0_23_57
*708 FILLER_0_23_69
*709 FILLER_0_23_81
*710 FILLER_0_23_93
*711 FILLER_0_24_109
*712 FILLER_0_24_121
*713 FILLER_0_24_133
*714 FILLER_0_24_139
*715 FILLER_0_24_141
*716 FILLER_0_24_15
*717 FILLER_0_24_153
*718 FILLER_0_24_165
*719 FILLER_0_24_177
*720 FILLER_0_24_189
*721 FILLER_0_24_195
*722 FILLER_0_24_197
*723 FILLER_0_24_209
*724 FILLER_0_24_221
*725 FILLER_0_24_233
*726 FILLER_0_24_245
*727 FILLER_0_24_251
*728 FILLER_0_24_253
*729 FILLER_0_24_265
*730 FILLER_0_24_27
*731 FILLER_0_24_277
*732 FILLER_0_24_289
*733 FILLER_0_24_29
*734 FILLER_0_24_3
*735 FILLER_0_24_301
*736 FILLER_0_24_307
*737 FILLER_0_24_309
*738 FILLER_0_24_321
*739 FILLER_0_24_333
*740 FILLER_0_24_345
*741 FILLER_0_24_41
*742 FILLER_0_24_53
*743 FILLER_0_24_65
*744 FILLER_0_24_77
*745 FILLER_0_24_83
*746 FILLER_0_24_85
*747 FILLER_0_24_97
*748 FILLER_0_25_105
*749 FILLER_0_25_111
*750 FILLER_0_25_113
*751 FILLER_0_25_125
*752 FILLER_0_25_137
*753 FILLER_0_25_149
*754 FILLER_0_25_15
*755 FILLER_0_25_161
*756 FILLER_0_25_167
*757 FILLER_0_25_169
*758 FILLER_0_25_181
*759 FILLER_0_25_193
*760 FILLER_0_25_205
*761 FILLER_0_25_217
*762 FILLER_0_25_223
*763 FILLER_0_25_225
*764 FILLER_0_25_237
*765 FILLER_0_25_249
*766 FILLER_0_25_261
*767 FILLER_0_25_27
*768 FILLER_0_25_273
*769 FILLER_0_25_279
*770 FILLER_0_25_281
*771 FILLER_0_25_293
*772 FILLER_0_25_3
*773 FILLER_0_25_305
*774 FILLER_0_25_317
*775 FILLER_0_25_329
*776 FILLER_0_25_335
*777 FILLER_0_25_337
*778 FILLER_0_25_349
*779 FILLER_0_25_39
*780 FILLER_0_25_51
*781 FILLER_0_25_55
*782 FILLER_0_25_57
*783 FILLER_0_25_69
*784 FILLER_0_25_81
*785 FILLER_0_25_93
*786 FILLER_0_26_109
*787 FILLER_0_26_121
*788 FILLER_0_26_133
*789 FILLER_0_26_139
*790 FILLER_0_26_141
*791 FILLER_0_26_15
*792 FILLER_0_26_153
*793 FILLER_0_26_165
*794 FILLER_0_26_177
*795 FILLER_0_26_189
*796 FILLER_0_26_195
*797 FILLER_0_26_197
*798 FILLER_0_26_209
*799 FILLER_0_26_221
*800 FILLER_0_26_233
*801 FILLER_0_26_245
*802 FILLER_0_26_251
*803 FILLER_0_26_253
*804 FILLER_0_26_265
*805 FILLER_0_26_27
*806 FILLER_0_26_277
*807 FILLER_0_26_289
*808 FILLER_0_26_29
*809 FILLER_0_26_3
*810 FILLER_0_26_301
*811 FILLER_0_26_307
*812 FILLER_0_26_309
*813 FILLER_0_26_321
*814 FILLER_0_26_333
*815 FILLER_0_26_345
*816 FILLER_0_26_41
*817 FILLER_0_26_53
*818 FILLER_0_26_65
*819 FILLER_0_26_77
*820 FILLER_0_26_83
*821 FILLER_0_26_85
*822 FILLER_0_26_97
*823 FILLER_0_27_105
*824 FILLER_0_27_111
*825 FILLER_0_27_113
*826 FILLER_0_27_125
*827 FILLER_0_27_137
*828 FILLER_0_27_149
*829 FILLER_0_27_15
*830 FILLER_0_27_161
*831 FILLER_0_27_167
*832 FILLER_0_27_169
*833 FILLER_0_27_181
*834 FILLER_0_27_193
*835 FILLER_0_27_205
*836 FILLER_0_27_217
*837 FILLER_0_27_223
*838 FILLER_0_27_225
*839 FILLER_0_27_237
*840 FILLER_0_27_249
*841 FILLER_0_27_261
*842 FILLER_0_27_27
*843 FILLER_0_27_273
*844 FILLER_0_27_279
*845 FILLER_0_27_281
*846 FILLER_0_27_293
*847 FILLER_0_27_3
*848 FILLER_0_27_305
*849 FILLER_0_27_317
*850 FILLER_0_27_329
*851 FILLER_0_27_335
*852 FILLER_0_27_337
*853 FILLER_0_27_349
*854 FILLER_0_27_39
*855 FILLER_0_27_51
*856 FILLER_0_27_55
*857 FILLER_0_27_57
*858 FILLER_0_27_69
*859 FILLER_0_27_81
*860 FILLER_0_27_93
*861 FILLER_0_28_109
*862 FILLER_0_28_121
*863 FILLER_0_28_133
*864 FILLER_0_28_139
*865 FILLER_0_28_141
*866 FILLER_0_28_15
*867 FILLER_0_28_153
*868 FILLER_0_28_165
*869 FILLER_0_28_177
*870 FILLER_0_28_189
*871 FILLER_0_28_195
*872 FILLER_0_28_197
*873 FILLER_0_28_209
*874 FILLER_0_28_221
*875 FILLER_0_28_233
*876 FILLER_0_28_245
*877 FILLER_0_28_251
*878 FILLER_0_28_253
*879 FILLER_0_28_265
*880 FILLER_0_28_27
*881 FILLER_0_28_277
*882 FILLER_0_28_289
*883 FILLER_0_28_29
*884 FILLER_0_28_3
*885 FILLER_0_28_301
*886 FILLER_0_28_307
*887 FILLER_0_28_309
*888 FILLER_0_28_321
*889 FILLER_0_28_333
*890 FILLER_0_28_345
*891 FILLER_0_28_41
*892 FILLER_0_28_53
*893 FILLER_0_28_65
*894 FILLER_0_28_77
*895 FILLER_0_28_83
*896 FILLER_0_28_85
*897 FILLER_0_28_97
*898 FILLER_0_29_105
*899 FILLER_0_29_111
*900 FILLER_0_29_113
*901 FILLER_0_29_125
*902 FILLER_0_29_137
*903 FILLER_0_29_149
*904 FILLER_0_29_15
*905 FILLER_0_29_161
*906 FILLER_0_29_167
*907 FILLER_0_29_169
*908 FILLER_0_29_181
*909 FILLER_0_29_193
*910 FILLER_0_29_205
*911 FILLER_0_29_217
*912 FILLER_0_29_223
*913 FILLER_0_29_225
*914 FILLER_0_29_237
*915 FILLER_0_29_249
*916 FILLER_0_29_261
*917 FILLER_0_29_27
*918 FILLER_0_29_273
*919 FILLER_0_29_279
*920 FILLER_0_29_281
*921 FILLER_0_29_293
*922 FILLER_0_29_3
*923 FILLER_0_29_305
*924 FILLER_0_29_317
*925 FILLER_0_29_329
*926 FILLER_0_29_335
*927 FILLER_0_29_337
*928 FILLER_0_29_349
*929 FILLER_0_29_39
*930 FILLER_0_29_51
*931 FILLER_0_29_55
*932 FILLER_0_29_57
*933 FILLER_0_29_69
*934 FILLER_0_29_81
*935 FILLER_0_29_93
*936 FILLER_0_2_109
*937 FILLER_0_2_121
*938 FILLER_0_2_133
*939 FILLER_0_2_139
*940 FILLER_0_2_141
*941 FILLER_0_2_15
*942 FILLER_0_2_153
*943 FILLER_0_2_165
*944 FILLER_0_2_177
*945 FILLER_0_2_189
*946 FILLER_0_2_195
*947 FILLER_0_2_197
*948 FILLER_0_2_209
*949 FILLER_0_2_221
*950 FILLER_0_2_233
*951 FILLER_0_2_245
*952 FILLER_0_2_251
*953 FILLER_0_2_253
*954 FILLER_0_2_265
*955 FILLER_0_2_27
*956 FILLER_0_2_277
*957 FILLER_0_2_289
*958 FILLER_0_2_29
*959 FILLER_0_2_3
*960 FILLER_0_2_301
*961 FILLER_0_2_307
*962 FILLER_0_2_309
*963 FILLER_0_2_321
*964 FILLER_0_2_333
*965 FILLER_0_2_345
*966 FILLER_0_2_41
*967 FILLER_0_2_53
*968 FILLER_0_2_65
*969 FILLER_0_2_77
*970 FILLER_0_2_83
*971 FILLER_0_2_85
*972 FILLER_0_2_97
*973 FILLER_0_30_109
*974 FILLER_0_30_121
*975 FILLER_0_30_133
*976 FILLER_0_30_139
*977 FILLER_0_30_141
*978 FILLER_0_30_15
*979 FILLER_0_30_153
*980 FILLER_0_30_165
*981 FILLER_0_30_177
*982 FILLER_0_30_189
*983 FILLER_0_30_195
*984 FILLER_0_30_197
*985 FILLER_0_30_209
*986 FILLER_0_30_221
*987 FILLER_0_30_233
*988 FILLER_0_30_245
*989 FILLER_0_30_251
*990 FILLER_0_30_253
*991 FILLER_0_30_265
*992 FILLER_0_30_27
*993 FILLER_0_30_277
*994 FILLER_0_30_289
*995 FILLER_0_30_29
*996 FILLER_0_30_3
*997 FILLER_0_30_301
*998 FILLER_0_30_307
*999 FILLER_0_30_309
*1000 FILLER_0_30_321
*1001 FILLER_0_30_333
*1002 FILLER_0_30_345
*1003 FILLER_0_30_41
*1004 FILLER_0_30_53
*1005 FILLER_0_30_65
*1006 FILLER_0_30_77
*1007 FILLER_0_30_83
*1008 FILLER_0_30_85
*1009 FILLER_0_30_97
*1010 FILLER_0_31_105
*1011 FILLER_0_31_111
*1012 FILLER_0_31_113
*1013 FILLER_0_31_125
*1014 FILLER_0_31_137
*1015 FILLER_0_31_149
*1016 FILLER_0_31_15
*1017 FILLER_0_31_161
*1018 FILLER_0_31_167
*1019 FILLER_0_31_169
*1020 FILLER_0_31_181
*1021 FILLER_0_31_193
*1022 FILLER_0_31_205
*1023 FILLER_0_31_217
*1024 FILLER_0_31_223
*1025 FILLER_0_31_225
*1026 FILLER_0_31_237
*1027 FILLER_0_31_249
*1028 FILLER_0_31_261
*1029 FILLER_0_31_27
*1030 FILLER_0_31_273
*1031 FILLER_0_31_279
*1032 FILLER_0_31_281
*1033 FILLER_0_31_293
*1034 FILLER_0_31_3
*1035 FILLER_0_31_305
*1036 FILLER_0_31_317
*1037 FILLER_0_31_329
*1038 FILLER_0_31_335
*1039 FILLER_0_31_337
*1040 FILLER_0_31_349
*1041 FILLER_0_31_39
*1042 FILLER_0_31_51
*1043 FILLER_0_31_55
*1044 FILLER_0_31_57
*1045 FILLER_0_31_69
*1046 FILLER_0_31_81
*1047 FILLER_0_31_93
*1048 FILLER_0_32_109
*1049 FILLER_0_32_121
*1050 FILLER_0_32_133
*1051 FILLER_0_32_139
*1052 FILLER_0_32_141
*1053 FILLER_0_32_15
*1054 FILLER_0_32_153
*1055 FILLER_0_32_165
*1056 FILLER_0_32_177
*1057 FILLER_0_32_189
*1058 FILLER_0_32_195
*1059 FILLER_0_32_197
*1060 FILLER_0_32_209
*1061 FILLER_0_32_221
*1062 FILLER_0_32_233
*1063 FILLER_0_32_245
*1064 FILLER_0_32_251
*1065 FILLER_0_32_253
*1066 FILLER_0_32_265
*1067 FILLER_0_32_27
*1068 FILLER_0_32_277
*1069 FILLER_0_32_289
*1070 FILLER_0_32_29
*1071 FILLER_0_32_3
*1072 FILLER_0_32_301
*1073 FILLER_0_32_307
*1074 FILLER_0_32_309
*1075 FILLER_0_32_321
*1076 FILLER_0_32_333
*1077 FILLER_0_32_345
*1078 FILLER_0_32_41
*1079 FILLER_0_32_53
*1080 FILLER_0_32_65
*1081 FILLER_0_32_77
*1082 FILLER_0_32_83
*1083 FILLER_0_32_85
*1084 FILLER_0_32_97
*1085 FILLER_0_33_105
*1086 FILLER_0_33_111
*1087 FILLER_0_33_113
*1088 FILLER_0_33_125
*1089 FILLER_0_33_137
*1090 FILLER_0_33_149
*1091 FILLER_0_33_15
*1092 FILLER_0_33_161
*1093 FILLER_0_33_167
*1094 FILLER_0_33_169
*1095 FILLER_0_33_181
*1096 FILLER_0_33_193
*1097 FILLER_0_33_216
*1098 FILLER_0_33_225
*1099 FILLER_0_33_237
*1100 FILLER_0_33_249
*1101 FILLER_0_33_27
*1102 FILLER_0_33_272
*1103 FILLER_0_33_278
*1104 FILLER_0_33_281
*1105 FILLER_0_33_293
*1106 FILLER_0_33_3
*1107 FILLER_0_33_305
*1108 FILLER_0_33_317
*1109 FILLER_0_33_329
*1110 FILLER_0_33_335
*1111 FILLER_0_33_337
*1112 FILLER_0_33_349
*1113 FILLER_0_33_39
*1114 FILLER_0_33_51
*1115 FILLER_0_33_55
*1116 FILLER_0_33_57
*1117 FILLER_0_33_69
*1118 FILLER_0_33_81
*1119 FILLER_0_33_93
*1120 FILLER_0_34_109
*1121 FILLER_0_34_121
*1122 FILLER_0_34_133
*1123 FILLER_0_34_139
*1124 FILLER_0_34_141
*1125 FILLER_0_34_15
*1126 FILLER_0_34_153
*1127 FILLER_0_34_165
*1128 FILLER_0_34_177
*1129 FILLER_0_34_189
*1130 FILLER_0_34_195
*1131 FILLER_0_34_197
*1132 FILLER_0_34_221
*1133 FILLER_0_34_242
*1134 FILLER_0_34_250
*1135 FILLER_0_34_253
*1136 FILLER_0_34_259
*1137 FILLER_0_34_27
*1138 FILLER_0_34_29
*1139 FILLER_0_34_3
*1140 FILLER_0_34_302
*1141 FILLER_0_34_309
*1142 FILLER_0_34_321
*1143 FILLER_0_34_333
*1144 FILLER_0_34_345
*1145 FILLER_0_34_41
*1146 FILLER_0_34_53
*1147 FILLER_0_34_65
*1148 FILLER_0_34_77
*1149 FILLER_0_34_83
*1150 FILLER_0_34_85
*1151 FILLER_0_34_97
*1152 FILLER_0_35_105
*1153 FILLER_0_35_111
*1154 FILLER_0_35_113
*1155 FILLER_0_35_125
*1156 FILLER_0_35_137
*1157 FILLER_0_35_149
*1158 FILLER_0_35_15
*1159 FILLER_0_35_163
*1160 FILLER_0_35_167
*1161 FILLER_0_35_169
*1162 FILLER_0_35_196
*1163 FILLER_0_35_208
*1164 FILLER_0_35_215
*1165 FILLER_0_35_223
*1166 FILLER_0_35_225
*1167 FILLER_0_35_244
*1168 FILLER_0_35_254
*1169 FILLER_0_35_266
*1170 FILLER_0_35_27
*1171 FILLER_0_35_274
*1172 FILLER_0_35_291
*1173 FILLER_0_35_3
*1174 FILLER_0_35_316
*1175 FILLER_0_35_328
*1176 FILLER_0_35_337
*1177 FILLER_0_35_349
*1178 FILLER_0_35_39
*1179 FILLER_0_35_51
*1180 FILLER_0_35_55
*1181 FILLER_0_35_57
*1182 FILLER_0_35_69
*1183 FILLER_0_35_81
*1184 FILLER_0_35_93
*1185 FILLER_0_36_109
*1186 FILLER_0_36_121
*1187 FILLER_0_36_133
*1188 FILLER_0_36_139
*1189 FILLER_0_36_141
*1190 FILLER_0_36_15
*1191 FILLER_0_36_161
*1192 FILLER_0_36_176
*1193 FILLER_0_36_190
*1194 FILLER_0_36_197
*1195 FILLER_0_36_210
*1196 FILLER_0_36_227
*1197 FILLER_0_36_231
*1198 FILLER_0_36_267
*1199 FILLER_0_36_27
*1200 FILLER_0_36_275
*1201 FILLER_0_36_279
*1202 FILLER_0_36_283
*1203 FILLER_0_36_29
*1204 FILLER_0_36_295
*1205 FILLER_0_36_3
*1206 FILLER_0_36_305
*1207 FILLER_0_36_309
*1208 FILLER_0_36_321
*1209 FILLER_0_36_333
*1210 FILLER_0_36_345
*1211 FILLER_0_36_41
*1212 FILLER_0_36_53
*1213 FILLER_0_36_65
*1214 FILLER_0_36_77
*1215 FILLER_0_36_83
*1216 FILLER_0_36_85
*1217 FILLER_0_36_97
*1218 FILLER_0_37_105
*1219 FILLER_0_37_111
*1220 FILLER_0_37_113
*1221 FILLER_0_37_125
*1222 FILLER_0_37_137
*1223 FILLER_0_37_149
*1224 FILLER_0_37_15
*1225 FILLER_0_37_161
*1226 FILLER_0_37_167
*1227 FILLER_0_37_169
*1228 FILLER_0_37_175
*1229 FILLER_0_37_181
*1230 FILLER_0_37_187
*1231 FILLER_0_37_220
*1232 FILLER_0_37_230
*1233 FILLER_0_37_238
*1234 FILLER_0_37_246
*1235 FILLER_0_37_27
*1236 FILLER_0_37_286
*1237 FILLER_0_37_294
*1238 FILLER_0_37_3
*1239 FILLER_0_37_325
*1240 FILLER_0_37_333
*1241 FILLER_0_37_337
*1242 FILLER_0_37_349
*1243 FILLER_0_37_39
*1244 FILLER_0_37_51
*1245 FILLER_0_37_55
*1246 FILLER_0_37_57
*1247 FILLER_0_37_69
*1248 FILLER_0_37_81
*1249 FILLER_0_37_93
*1250 FILLER_0_38_104
*1251 FILLER_0_38_110
*1252 FILLER_0_38_113
*1253 FILLER_0_38_123
*1254 FILLER_0_38_128
*1255 FILLER_0_38_134
*1256 FILLER_0_38_141
*1257 FILLER_0_38_146
*1258 FILLER_0_38_15
*1259 FILLER_0_38_152
*1260 FILLER_0_38_164
*1261 FILLER_0_38_174
*1262 FILLER_0_38_180
*1263 FILLER_0_38_193
*1264 FILLER_0_38_197
*1265 FILLER_0_38_201
*1266 FILLER_0_38_205
*1267 FILLER_0_38_211
*1268 FILLER_0_38_221
*1269 FILLER_0_38_225
*1270 FILLER_0_38_231
*1271 FILLER_0_38_240
*1272 FILLER_0_38_248
*1273 FILLER_0_38_253
*1274 FILLER_0_38_259
*1275 FILLER_0_38_27
*1276 FILLER_0_38_274
*1277 FILLER_0_38_29
*1278 FILLER_0_38_3
*1279 FILLER_0_38_309
*1280 FILLER_0_38_313
*1281 FILLER_0_38_333
*1282 FILLER_0_38_337
*1283 FILLER_0_38_349
*1284 FILLER_0_38_41
*1285 FILLER_0_38_53
*1286 FILLER_0_38_57
*1287 FILLER_0_38_68
*1288 FILLER_0_38_74
*1289 FILLER_0_38_80
*1290 FILLER_0_38_88
*1291 FILLER_0_38_92
*1292 FILLER_0_38_98
*1293 FILLER_0_3_105
*1294 FILLER_0_3_111
*1295 FILLER_0_3_113
*1296 FILLER_0_3_125
*1297 FILLER_0_3_137
*1298 FILLER_0_3_149
*1299 FILLER_0_3_15
*1300 FILLER_0_3_161
*1301 FILLER_0_3_167
*1302 FILLER_0_3_169
*1303 FILLER_0_3_181
*1304 FILLER_0_3_193
*1305 FILLER_0_3_205
*1306 FILLER_0_3_217
*1307 FILLER_0_3_223
*1308 FILLER_0_3_225
*1309 FILLER_0_3_237
*1310 FILLER_0_3_249
*1311 FILLER_0_3_261
*1312 FILLER_0_3_27
*1313 FILLER_0_3_273
*1314 FILLER_0_3_279
*1315 FILLER_0_3_281
*1316 FILLER_0_3_293
*1317 FILLER_0_3_3
*1318 FILLER_0_3_305
*1319 FILLER_0_3_317
*1320 FILLER_0_3_329
*1321 FILLER_0_3_335
*1322 FILLER_0_3_337
*1323 FILLER_0_3_349
*1324 FILLER_0_3_39
*1325 FILLER_0_3_51
*1326 FILLER_0_3_55
*1327 FILLER_0_3_57
*1328 FILLER_0_3_69
*1329 FILLER_0_3_81
*1330 FILLER_0_3_93
*1331 FILLER_0_4_109
*1332 FILLER_0_4_121
*1333 FILLER_0_4_133
*1334 FILLER_0_4_139
*1335 FILLER_0_4_141
*1336 FILLER_0_4_15
*1337 FILLER_0_4_153
*1338 FILLER_0_4_165
*1339 FILLER_0_4_177
*1340 FILLER_0_4_189
*1341 FILLER_0_4_195
*1342 FILLER_0_4_197
*1343 FILLER_0_4_209
*1344 FILLER_0_4_221
*1345 FILLER_0_4_233
*1346 FILLER_0_4_245
*1347 FILLER_0_4_251
*1348 FILLER_0_4_253
*1349 FILLER_0_4_265
*1350 FILLER_0_4_27
*1351 FILLER_0_4_277
*1352 FILLER_0_4_289
*1353 FILLER_0_4_29
*1354 FILLER_0_4_3
*1355 FILLER_0_4_301
*1356 FILLER_0_4_307
*1357 FILLER_0_4_309
*1358 FILLER_0_4_321
*1359 FILLER_0_4_333
*1360 FILLER_0_4_345
*1361 FILLER_0_4_41
*1362 FILLER_0_4_53
*1363 FILLER_0_4_65
*1364 FILLER_0_4_77
*1365 FILLER_0_4_83
*1366 FILLER_0_4_85
*1367 FILLER_0_4_97
*1368 FILLER_0_5_105
*1369 FILLER_0_5_111
*1370 FILLER_0_5_113
*1371 FILLER_0_5_125
*1372 FILLER_0_5_137
*1373 FILLER_0_5_149
*1374 FILLER_0_5_15
*1375 FILLER_0_5_161
*1376 FILLER_0_5_167
*1377 FILLER_0_5_169
*1378 FILLER_0_5_181
*1379 FILLER_0_5_193
*1380 FILLER_0_5_205
*1381 FILLER_0_5_217
*1382 FILLER_0_5_223
*1383 FILLER_0_5_225
*1384 FILLER_0_5_237
*1385 FILLER_0_5_249
*1386 FILLER_0_5_261
*1387 FILLER_0_5_27
*1388 FILLER_0_5_273
*1389 FILLER_0_5_279
*1390 FILLER_0_5_281
*1391 FILLER_0_5_293
*1392 FILLER_0_5_3
*1393 FILLER_0_5_305
*1394 FILLER_0_5_317
*1395 FILLER_0_5_329
*1396 FILLER_0_5_335
*1397 FILLER_0_5_337
*1398 FILLER_0_5_349
*1399 FILLER_0_5_39
*1400 FILLER_0_5_51
*1401 FILLER_0_5_55
*1402 FILLER_0_5_57
*1403 FILLER_0_5_69
*1404 FILLER_0_5_81
*1405 FILLER_0_5_93
*1406 FILLER_0_6_109
*1407 FILLER_0_6_121
*1408 FILLER_0_6_133
*1409 FILLER_0_6_139
*1410 FILLER_0_6_141
*1411 FILLER_0_6_15
*1412 FILLER_0_6_153
*1413 FILLER_0_6_165
*1414 FILLER_0_6_177
*1415 FILLER_0_6_189
*1416 FILLER_0_6_195
*1417 FILLER_0_6_197
*1418 FILLER_0_6_209
*1419 FILLER_0_6_221
*1420 FILLER_0_6_233
*1421 FILLER_0_6_245
*1422 FILLER_0_6_251
*1423 FILLER_0_6_253
*1424 FILLER_0_6_265
*1425 FILLER_0_6_27
*1426 FILLER_0_6_277
*1427 FILLER_0_6_289
*1428 FILLER_0_6_29
*1429 FILLER_0_6_3
*1430 FILLER_0_6_301
*1431 FILLER_0_6_307
*1432 FILLER_0_6_309
*1433 FILLER_0_6_321
*1434 FILLER_0_6_333
*1435 FILLER_0_6_345
*1436 FILLER_0_6_41
*1437 FILLER_0_6_53
*1438 FILLER_0_6_65
*1439 FILLER_0_6_77
*1440 FILLER_0_6_83
*1441 FILLER_0_6_85
*1442 FILLER_0_6_97
*1443 FILLER_0_7_105
*1444 FILLER_0_7_111
*1445 FILLER_0_7_113
*1446 FILLER_0_7_125
*1447 FILLER_0_7_137
*1448 FILLER_0_7_149
*1449 FILLER_0_7_15
*1450 FILLER_0_7_161
*1451 FILLER_0_7_167
*1452 FILLER_0_7_169
*1453 FILLER_0_7_181
*1454 FILLER_0_7_193
*1455 FILLER_0_7_205
*1456 FILLER_0_7_217
*1457 FILLER_0_7_223
*1458 FILLER_0_7_225
*1459 FILLER_0_7_237
*1460 FILLER_0_7_249
*1461 FILLER_0_7_261
*1462 FILLER_0_7_27
*1463 FILLER_0_7_273
*1464 FILLER_0_7_279
*1465 FILLER_0_7_281
*1466 FILLER_0_7_293
*1467 FILLER_0_7_3
*1468 FILLER_0_7_305
*1469 FILLER_0_7_317
*1470 FILLER_0_7_329
*1471 FILLER_0_7_335
*1472 FILLER_0_7_337
*1473 FILLER_0_7_349
*1474 FILLER_0_7_39
*1475 FILLER_0_7_51
*1476 FILLER_0_7_55
*1477 FILLER_0_7_57
*1478 FILLER_0_7_69