*SPEF "ieee 1481-1999"
*DESIGN "tt_um_wokwi_379889284755158017"
*DATE "11:11:11 Fri 11 11, 1111"
*VENDOR "OpenRCX"
*PROGRAM "Parallel Extraction"
*VERSION "1.0"
*DESIGN_FLOW "NAME_SCOPE LOCAL" "PIN_CAP NONE"
*DIVIDER /
*DELIMITER :
*BUS_DELIMITER []
*T_UNIT 1 NS
*C_UNIT 1 PF
*R_UNIT 1 OHM
*L_UNIT 1 HENRY

*NAME_MAP
*3 clk
*4 ena
*5 rst_n
*6 ui_in[0]
*7 ui_in[1]
*8 ui_in[2]
*9 ui_in[3]
*10 ui_in[4]
*11 ui_in[5]
*12 ui_in[6]
*13 ui_in[7]
*14 uio_in[0]
*15 uio_in[1]
*16 uio_in[2]
*17 uio_in[3]
*18 uio_in[4]
*19 uio_in[5]
*20 uio_in[6]
*21 uio_in[7]
*22 net4
*23 net5
*24 net6
*25 net7
*26 net8
*27 net9
*28 net10
*29 net11
*30 net12
*31 net13
*32 net14
*33 net15
*34 net16
*35 net17
*36 net18
*37 net19
*38 uo_out[0]
*39 uo_out[1]
*40 uo_out[2]
*41 uo_out[3]
*42 uo_out[4]
*43 uo_out[5]
*44 uo_out[6]
*45 net20
*46 _000_
*47 _001_
*48 _002_
*49 _003_
*50 _004_
*51 _005_
*52 _006_
*53 _007_
*54 _008_
*55 _009_
*56 _010_
*57 _011_
*58 _012_
*59 _013_
*60 _014_
*61 _015_
*62 _016_
*63 _017_
*64 _018_
*65 _019_
*66 _020_
*67 _021_
*68 _022_
*69 _023_
*70 clknet_0_clk
*71 clknet_1_0__leaf_clk
*72 clknet_1_1__leaf_clk
*73 flop1\.d
*74 flop1\.q
*75 flop10\.d
*76 flop10\.q
*77 flop11\.q
*78 flop12\.d
*79 flop12\.q
*80 flop13\.d
*81 flop13\.q
*82 flop2\.d
*83 flop2\.q
*84 flop3\.d
*85 flop3\.q
*86 flop4\.d
*87 flop4\.q
*88 flop5\.d
*89 flop5\.q
*90 flop6\.d
*91 flop6\.q
*92 flop7\.d
*93 flop7\.q
*94 flop8\.d
*95 flop8\.q
*96 flop9\.d
*97 flop9\.q
*98 net1
*99 net2
*100 net21
*101 net3
*102 not2\.out
*103 not3\.out
*104 not4\.out
*105 not5\.out
*106 not6\.out
*107 not7\.out
*108 or23\.out
*109 FILLER_0_0_109
*110 FILLER_0_0_113
*111 FILLER_0_0_125
*112 FILLER_0_0_137
*113 FILLER_0_0_141
*114 FILLER_0_0_15
*115 FILLER_0_0_153
*116 FILLER_0_0_165
*117 FILLER_0_0_169
*118 FILLER_0_0_181
*119 FILLER_0_0_193
*120 FILLER_0_0_197
*121 FILLER_0_0_209
*122 FILLER_0_0_221
*123 FILLER_0_0_225
*124 FILLER_0_0_237
*125 FILLER_0_0_249
*126 FILLER_0_0_253
*127 FILLER_0_0_265
*128 FILLER_0_0_27
*129 FILLER_0_0_277
*130 FILLER_0_0_281
*131 FILLER_0_0_29
*132 FILLER_0_0_293
*133 FILLER_0_0_3
*134 FILLER_0_0_305
*135 FILLER_0_0_309
*136 FILLER_0_0_321
*137 FILLER_0_0_333
*138 FILLER_0_0_337
*139 FILLER_0_0_349
*140 FILLER_0_0_41
*141 FILLER_0_0_53
*142 FILLER_0_0_57
*143 FILLER_0_0_69
*144 FILLER_0_0_81
*145 FILLER_0_0_85
*146 FILLER_0_0_97
*147 FILLER_0_10_109
*148 FILLER_0_10_121
*149 FILLER_0_10_133
*150 FILLER_0_10_139
*151 FILLER_0_10_141
*152 FILLER_0_10_15
*153 FILLER_0_10_153
*154 FILLER_0_10_165
*155 FILLER_0_10_177
*156 FILLER_0_10_189
*157 FILLER_0_10_195
*158 FILLER_0_10_197
*159 FILLER_0_10_209
*160 FILLER_0_10_221
*161 FILLER_0_10_233
*162 FILLER_0_10_245
*163 FILLER_0_10_251
*164 FILLER_0_10_253
*165 FILLER_0_10_265
*166 FILLER_0_10_27
*167 FILLER_0_10_277
*168 FILLER_0_10_289
*169 FILLER_0_10_29
*170 FILLER_0_10_3
*171 FILLER_0_10_301
*172 FILLER_0_10_307
*173 FILLER_0_10_309
*174 FILLER_0_10_321
*175 FILLER_0_10_333
*176 FILLER_0_10_345
*177 FILLER_0_10_41
*178 FILLER_0_10_53
*179 FILLER_0_10_65
*180 FILLER_0_10_77
*181 FILLER_0_10_83
*182 FILLER_0_10_85
*183 FILLER_0_10_97
*184 FILLER_0_11_105
*185 FILLER_0_11_111
*186 FILLER_0_11_113
*187 FILLER_0_11_125
*188 FILLER_0_11_137
*189 FILLER_0_11_149
*190 FILLER_0_11_15
*191 FILLER_0_11_161
*192 FILLER_0_11_167
*193 FILLER_0_11_169
*194 FILLER_0_11_181
*195 FILLER_0_11_193
*196 FILLER_0_11_205
*197 FILLER_0_11_217
*198 FILLER_0_11_223
*199 FILLER_0_11_225
*200 FILLER_0_11_237
*201 FILLER_0_11_249
*202 FILLER_0_11_261
*203 FILLER_0_11_27
*204 FILLER_0_11_273
*205 FILLER_0_11_279
*206 FILLER_0_11_281
*207 FILLER_0_11_293
*208 FILLER_0_11_3
*209 FILLER_0_11_305
*210 FILLER_0_11_317
*211 FILLER_0_11_329
*212 FILLER_0_11_335
*213 FILLER_0_11_337
*214 FILLER_0_11_349
*215 FILLER_0_11_39
*216 FILLER_0_11_51
*217 FILLER_0_11_55
*218 FILLER_0_11_57
*219 FILLER_0_11_69
*220 FILLER_0_11_81
*221 FILLER_0_11_93
*222 FILLER_0_12_109
*223 FILLER_0_12_121
*224 FILLER_0_12_133
*225 FILLER_0_12_139
*226 FILLER_0_12_141
*227 FILLER_0_12_15
*228 FILLER_0_12_153
*229 FILLER_0_12_165
*230 FILLER_0_12_177
*231 FILLER_0_12_189
*232 FILLER_0_12_195
*233 FILLER_0_12_197
*234 FILLER_0_12_209
*235 FILLER_0_12_221
*236 FILLER_0_12_233
*237 FILLER_0_12_245
*238 FILLER_0_12_251
*239 FILLER_0_12_253
*240 FILLER_0_12_265
*241 FILLER_0_12_27
*242 FILLER_0_12_277
*243 FILLER_0_12_289
*244 FILLER_0_12_29
*245 FILLER_0_12_3
*246 FILLER_0_12_301
*247 FILLER_0_12_307
*248 FILLER_0_12_309
*249 FILLER_0_12_321
*250 FILLER_0_12_333
*251 FILLER_0_12_345
*252 FILLER_0_12_41
*253 FILLER_0_12_53
*254 FILLER_0_12_65
*255 FILLER_0_12_77
*256 FILLER_0_12_83
*257 FILLER_0_12_85
*258 FILLER_0_12_97
*259 FILLER_0_13_105
*260 FILLER_0_13_111
*261 FILLER_0_13_113
*262 FILLER_0_13_125
*263 FILLER_0_13_137
*264 FILLER_0_13_149
*265 FILLER_0_13_15
*266 FILLER_0_13_161
*267 FILLER_0_13_167
*268 FILLER_0_13_169
*269 FILLER_0_13_181
*270 FILLER_0_13_193
*271 FILLER_0_13_205
*272 FILLER_0_13_217
*273 FILLER_0_13_223
*274 FILLER_0_13_225
*275 FILLER_0_13_237
*276 FILLER_0_13_249
*277 FILLER_0_13_261
*278 FILLER_0_13_27
*279 FILLER_0_13_273
*280 FILLER_0_13_279
*281 FILLER_0_13_281
*282 FILLER_0_13_293
*283 FILLER_0_13_3
*284 FILLER_0_13_305
*285 FILLER_0_13_317
*286 FILLER_0_13_329
*287 FILLER_0_13_335
*288 FILLER_0_13_337
*289 FILLER_0_13_349
*290 FILLER_0_13_39
*291 FILLER_0_13_51
*292 FILLER_0_13_55
*293 FILLER_0_13_57
*294 FILLER_0_13_69
*295 FILLER_0_13_81
*296 FILLER_0_13_93
*297 FILLER_0_14_109
*298 FILLER_0_14_121
*299 FILLER_0_14_133
*300 FILLER_0_14_139
*301 FILLER_0_14_141
*302 FILLER_0_14_15
*303 FILLER_0_14_153
*304 FILLER_0_14_165
*305 FILLER_0_14_177
*306 FILLER_0_14_189
*307 FILLER_0_14_195
*308 FILLER_0_14_197
*309 FILLER_0_14_209
*310 FILLER_0_14_221
*311 FILLER_0_14_233
*312 FILLER_0_14_245
*313 FILLER_0_14_251
*314 FILLER_0_14_253
*315 FILLER_0_14_265
*316 FILLER_0_14_27
*317 FILLER_0_14_277
*318 FILLER_0_14_289
*319 FILLER_0_14_29
*320 FILLER_0_14_3
*321 FILLER_0_14_301
*322 FILLER_0_14_307
*323 FILLER_0_14_309
*324 FILLER_0_14_321
*325 FILLER_0_14_333
*326 FILLER_0_14_345
*327 FILLER_0_14_41
*328 FILLER_0_14_53
*329 FILLER_0_14_65
*330 FILLER_0_14_77
*331 FILLER_0_14_83
*332 FILLER_0_14_85
*333 FILLER_0_14_97
*334 FILLER_0_15_105
*335 FILLER_0_15_111
*336 FILLER_0_15_113
*337 FILLER_0_15_125
*338 FILLER_0_15_137
*339 FILLER_0_15_149
*340 FILLER_0_15_15
*341 FILLER_0_15_161
*342 FILLER_0_15_167
*343 FILLER_0_15_169
*344 FILLER_0_15_181
*345 FILLER_0_15_193
*346 FILLER_0_15_205
*347 FILLER_0_15_217
*348 FILLER_0_15_223
*349 FILLER_0_15_225
*350 FILLER_0_15_237
*351 FILLER_0_15_249
*352 FILLER_0_15_261
*353 FILLER_0_15_27
*354 FILLER_0_15_273
*355 FILLER_0_15_279
*356 FILLER_0_15_281
*357 FILLER_0_15_293
*358 FILLER_0_15_3
*359 FILLER_0_15_305
*360 FILLER_0_15_317
*361 FILLER_0_15_329
*362 FILLER_0_15_335
*363 FILLER_0_15_337
*364 FILLER_0_15_349
*365 FILLER_0_15_39
*366 FILLER_0_15_51
*367 FILLER_0_15_55
*368 FILLER_0_15_57
*369 FILLER_0_15_69
*370 FILLER_0_15_81
*371 FILLER_0_15_93
*372 FILLER_0_16_109
*373 FILLER_0_16_121
*374 FILLER_0_16_133
*375 FILLER_0_16_139
*376 FILLER_0_16_141
*377 FILLER_0_16_15
*378 FILLER_0_16_153
*379 FILLER_0_16_165
*380 FILLER_0_16_177
*381 FILLER_0_16_189
*382 FILLER_0_16_195
*383 FILLER_0_16_197
*384 FILLER_0_16_209
*385 FILLER_0_16_221
*386 FILLER_0_16_233
*387 FILLER_0_16_245
*388 FILLER_0_16_251
*389 FILLER_0_16_253
*390 FILLER_0_16_265
*391 FILLER_0_16_27
*392 FILLER_0_16_277
*393 FILLER_0_16_289
*394 FILLER_0_16_29
*395 FILLER_0_16_3
*396 FILLER_0_16_301
*397 FILLER_0_16_307
*398 FILLER_0_16_309
*399 FILLER_0_16_321
*400 FILLER_0_16_333
*401 FILLER_0_16_345
*402 FILLER_0_16_41
*403 FILLER_0_16_53
*404 FILLER_0_16_65
*405 FILLER_0_16_77
*406 FILLER_0_16_83
*407 FILLER_0_16_85
*408 FILLER_0_16_97
*409 FILLER_0_17_105
*410 FILLER_0_17_111
*411 FILLER_0_17_113
*412 FILLER_0_17_125
*413 FILLER_0_17_137
*414 FILLER_0_17_149
*415 FILLER_0_17_15
*416 FILLER_0_17_161
*417 FILLER_0_17_167
*418 FILLER_0_17_169
*419 FILLER_0_17_181
*420 FILLER_0_17_193
*421 FILLER_0_17_205
*422 FILLER_0_17_217
*423 FILLER_0_17_223
*424 FILLER_0_17_225
*425 FILLER_0_17_237
*426 FILLER_0_17_249
*427 FILLER_0_17_261
*428 FILLER_0_17_27
*429 FILLER_0_17_273
*430 FILLER_0_17_279
*431 FILLER_0_17_281
*432 FILLER_0_17_293
*433 FILLER_0_17_3
*434 FILLER_0_17_305
*435 FILLER_0_17_317
*436 FILLER_0_17_329
*437 FILLER_0_17_335
*438 FILLER_0_17_337
*439 FILLER_0_17_349
*440 FILLER_0_17_39
*441 FILLER_0_17_51
*442 FILLER_0_17_55
*443 FILLER_0_17_57
*444 FILLER_0_17_69
*445 FILLER_0_17_81
*446 FILLER_0_17_93
*447 FILLER_0_18_109
*448 FILLER_0_18_121
*449 FILLER_0_18_133
*450 FILLER_0_18_139
*451 FILLER_0_18_141
*452 FILLER_0_18_15
*453 FILLER_0_18_153
*454 FILLER_0_18_165
*455 FILLER_0_18_177
*456 FILLER_0_18_189
*457 FILLER_0_18_195
*458 FILLER_0_18_197
*459 FILLER_0_18_209
*460 FILLER_0_18_221
*461 FILLER_0_18_233
*462 FILLER_0_18_245
*463 FILLER_0_18_251
*464 FILLER_0_18_253
*465 FILLER_0_18_265
*466 FILLER_0_18_27
*467 FILLER_0_18_277
*468 FILLER_0_18_289
*469 FILLER_0_18_29
*470 FILLER_0_18_3
*471 FILLER_0_18_301
*472 FILLER_0_18_307
*473 FILLER_0_18_309
*474 FILLER_0_18_321
*475 FILLER_0_18_333
*476 FILLER_0_18_345
*477 FILLER_0_18_41
*478 FILLER_0_18_53
*479 FILLER_0_18_65
*480 FILLER_0_18_77
*481 FILLER_0_18_83
*482 FILLER_0_18_85
*483 FILLER_0_18_97
*484 FILLER_0_19_105
*485 FILLER_0_19_111
*486 FILLER_0_19_113
*487 FILLER_0_19_125
*488 FILLER_0_19_137
*489 FILLER_0_19_149
*490 FILLER_0_19_15
*491 FILLER_0_19_161
*492 FILLER_0_19_167
*493 FILLER_0_19_169
*494 FILLER_0_19_181
*495 FILLER_0_19_193
*496 FILLER_0_19_205
*497 FILLER_0_19_217
*498 FILLER_0_19_223
*499 FILLER_0_19_225
*500 FILLER_0_19_237
*501 FILLER_0_19_249
*502 FILLER_0_19_261
*503 FILLER_0_19_27
*504 FILLER_0_19_273
*505 FILLER_0_19_279
*506 FILLER_0_19_281
*507 FILLER_0_19_293
*508 FILLER_0_19_3
*509 FILLER_0_19_305
*510 FILLER_0_19_317
*511 FILLER_0_19_329
*512 FILLER_0_19_335
*513 FILLER_0_19_337
*514 FILLER_0_19_349
*515 FILLER_0_19_39
*516 FILLER_0_19_51
*517 FILLER_0_19_55
*518 FILLER_0_19_57
*519 FILLER_0_19_69
*520 FILLER_0_19_81
*521 FILLER_0_19_93
*522 FILLER_0_1_105
*523 FILLER_0_1_111
*524 FILLER_0_1_113
*525 FILLER_0_1_125
*526 FILLER_0_1_137
*527 FILLER_0_1_149
*528 FILLER_0_1_15
*529 FILLER_0_1_161
*530 FILLER_0_1_167
*531 FILLER_0_1_169
*532 FILLER_0_1_181
*533 FILLER_0_1_193
*534 FILLER_0_1_205
*535 FILLER_0_1_217
*536 FILLER_0_1_223
*537 FILLER_0_1_225
*538 FILLER_0_1_237
*539 FILLER_0_1_249
*540 FILLER_0_1_261
*541 FILLER_0_1_27
*542 FILLER_0_1_273
*543 FILLER_0_1_279
*544 FILLER_0_1_281
*545 FILLER_0_1_293
*546 FILLER_0_1_3
*547 FILLER_0_1_305
*548 FILLER_0_1_317
*549 FILLER_0_1_329
*550 FILLER_0_1_335
*551 FILLER_0_1_337
*552 FILLER_0_1_349
*553 FILLER_0_1_39
*554 FILLER_0_1_51
*555 FILLER_0_1_55
*556 FILLER_0_1_57
*557 FILLER_0_1_69
*558 FILLER_0_1_81
*559 FILLER_0_1_93
*560 FILLER_0_20_109
*561 FILLER_0_20_121
*562 FILLER_0_20_133
*563 FILLER_0_20_139
*564 FILLER_0_20_141
*565 FILLER_0_20_15
*566 FILLER_0_20_153
*567 FILLER_0_20_165
*568 FILLER_0_20_177
*569 FILLER_0_20_189
*570 FILLER_0_20_195
*571 FILLER_0_20_197
*572 FILLER_0_20_209
*573 FILLER_0_20_221
*574 FILLER_0_20_233
*575 FILLER_0_20_245
*576 FILLER_0_20_251
*577 FILLER_0_20_253
*578 FILLER_0_20_265
*579 FILLER_0_20_27
*580 FILLER_0_20_277
*581 FILLER_0_20_289
*582 FILLER_0_20_29
*583 FILLER_0_20_3
*584 FILLER_0_20_301
*585 FILLER_0_20_307
*586 FILLER_0_20_309
*587 FILLER_0_20_321
*588 FILLER_0_20_333
*589 FILLER_0_20_345
*590 FILLER_0_20_41
*591 FILLER_0_20_53
*592 FILLER_0_20_65
*593 FILLER_0_20_77
*594 FILLER_0_20_83
*595 FILLER_0_20_85
*596 FILLER_0_20_97
*597 FILLER_0_21_105
*598 FILLER_0_21_111
*599 FILLER_0_21_113
*600 FILLER_0_21_125
*601 FILLER_0_21_137
*602 FILLER_0_21_149
*603 FILLER_0_21_15
*604 FILLER_0_21_161
*605 FILLER_0_21_167
*606 FILLER_0_21_169
*607 FILLER_0_21_181
*608 FILLER_0_21_193
*609 FILLER_0_21_205
*610 FILLER_0_21_217
*611 FILLER_0_21_223
*612 FILLER_0_21_225
*613 FILLER_0_21_237
*614 FILLER_0_21_249
*615 FILLER_0_21_261
*616 FILLER_0_21_27
*617 FILLER_0_21_273
*618 FILLER_0_21_279
*619 FILLER_0_21_281
*620 FILLER_0_21_293
*621 FILLER_0_21_3
*622 FILLER_0_21_305
*623 FILLER_0_21_317
*624 FILLER_0_21_329
*625 FILLER_0_21_335
*626 FILLER_0_21_337
*627 FILLER_0_21_349
*628 FILLER_0_21_39
*629 FILLER_0_21_51
*630 FILLER_0_21_55
*631 FILLER_0_21_57
*632 FILLER_0_21_69
*633 FILLER_0_21_81
*634 FILLER_0_21_93
*635 FILLER_0_22_109
*636 FILLER_0_22_121
*637 FILLER_0_22_133
*638 FILLER_0_22_139
*639 FILLER_0_22_141
*640 FILLER_0_22_15
*641 FILLER_0_22_153
*642 FILLER_0_22_165
*643 FILLER_0_22_177
*644 FILLER_0_22_189
*645 FILLER_0_22_195
*646 FILLER_0_22_197
*647 FILLER_0_22_209
*648 FILLER_0_22_221
*649 FILLER_0_22_233
*650 FILLER_0_22_245
*651 FILLER_0_22_251
*652 FILLER_0_22_253
*653 FILLER_0_22_265
*654 FILLER_0_22_27
*655 FILLER_0_22_277
*656 FILLER_0_22_289
*657 FILLER_0_22_29
*658 FILLER_0_22_3
*659 FILLER_0_22_301
*660 FILLER_0_22_307
*661 FILLER_0_22_309
*662 FILLER_0_22_321
*663 FILLER_0_22_333
*664 FILLER_0_22_345
*665 FILLER_0_22_41
*666 FILLER_0_22_53
*667 FILLER_0_22_65
*668 FILLER_0_22_77
*669 FILLER_0_22_83
*670 FILLER_0_22_85
*671 FILLER_0_22_97
*672 FILLER_0_23_105
*673 FILLER_0_23_111
*674 FILLER_0_23_113
*675 FILLER_0_23_125
*676 FILLER_0_23_137
*677 FILLER_0_23_149
*678 FILLER_0_23_15
*679 FILLER_0_23_161
*680 FILLER_0_23_167
*681 FILLER_0_23_169
*682 FILLER_0_23_181
*683 FILLER_0_23_193
*684 FILLER_0_23_205
*685 FILLER_0_23_217
*686 FILLER_0_23_223
*687 FILLER_0_23_225
*688 FILLER_0_23_237
*689 FILLER_0_23_249
*690 FILLER_0_23_261
*691 FILLER_0_23_27
*692 FILLER_0_23_273
*693 FILLER_0_23_279
*694 FILLER_0_23_281
*695 FILLER_0_23_293
*696 FILLER_0_23_3
*697 FILLER_0_23_305
*698 FILLER_0_23_317
*699 FILLER_0_23_329
*700 FILLER_0_23_335
*701 FILLER_0_23_337
*702 FILLER_0_23_349
*703 FILLER_0_23_39
*704 FILLER_0_23_51
*705 FILLER_0_23_55
*706 FILLER_0_23_57
*707 FILLER_0_23_69
*708 FILLER_0_23_81
*709 FILLER_0_23_93
*710 FILLER_0_24_109
*711 FILLER_0_24_121
*712 FILLER_0_24_133
*713 FILLER_0_24_139
*714 FILLER_0_24_141
*715 FILLER_0_24_15
*716 FILLER_0_24_153
*717 FILLER_0_24_165
*718 FILLER_0_24_177
*719 FILLER_0_24_189
*720 FILLER_0_24_195
*721 FILLER_0_24_197
*722 FILLER_0_24_209
*723 FILLER_0_24_221
*724 FILLER_0_24_233
*725 FILLER_0_24_245
*726 FILLER_0_24_251
*727 FILLER_0_24_253
*728 FILLER_0_24_265
*729 FILLER_0_24_27
*730 FILLER_0_24_277
*731 FILLER_0_24_289
*732 FILLER_0_24_29
*733 FILLER_0_24_3
*734 FILLER_0_24_301
*735 FILLER_0_24_307
*736 FILLER_0_24_309
*737 FILLER_0_24_321
*738 FILLER_0_24_333
*739 FILLER_0_24_345
*740 FILLER_0_24_41
*741 FILLER_0_24_53
*742 FILLER_0_24_65
*743 FILLER_0_24_77
*744 FILLER_0_24_83
*745 FILLER_0_24_85
*746 FILLER_0_24_97
*747 FILLER_0_25_105
*748 FILLER_0_25_111
*749 FILLER_0_25_113
*750 FILLER_0_25_125
*751 FILLER_0_25_137
*752 FILLER_0_25_149
*753 FILLER_0_25_15
*754 FILLER_0_25_161
*755 FILLER_0_25_167
*756 FILLER_0_25_169
*757 FILLER_0_25_181
*758 FILLER_0_25_193
*759 FILLER_0_25_205
*760 FILLER_0_25_217
*761 FILLER_0_25_223
*762 FILLER_0_25_225
*763 FILLER_0_25_237
*764 FILLER_0_25_249
*765 FILLER_0_25_261
*766 FILLER_0_25_27
*767 FILLER_0_25_273
*768 FILLER_0_25_279
*769 FILLER_0_25_281
*770 FILLER_0_25_293
*771 FILLER_0_25_3
*772 FILLER_0_25_305
*773 FILLER_0_25_317
*774 FILLER_0_25_329
*775 FILLER_0_25_335
*776 FILLER_0_25_337
*777 FILLER_0_25_349
*778 FILLER_0_25_39
*779 FILLER_0_25_51
*780 FILLER_0_25_55
*781 FILLER_0_25_57
*782 FILLER_0_25_69
*783 FILLER_0_25_81
*784 FILLER_0_25_93
*785 FILLER_0_26_109
*786 FILLER_0_26_121
*787 FILLER_0_26_133
*788 FILLER_0_26_139
*789 FILLER_0_26_141
*790 FILLER_0_26_15
*791 FILLER_0_26_153
*792 FILLER_0_26_165
*793 FILLER_0_26_177
*794 FILLER_0_26_189
*795 FILLER_0_26_195
*796 FILLER_0_26_197
*797 FILLER_0_26_209
*798 FILLER_0_26_221
*799 FILLER_0_26_233
*800 FILLER_0_26_245
*801 FILLER_0_26_251
*802 FILLER_0_26_253
*803 FILLER_0_26_265
*804 FILLER_0_26_27
*805 FILLER_0_26_277
*806 FILLER_0_26_289
*807 FILLER_0_26_29
*808 FILLER_0_26_3
*809 FILLER_0_26_301
*810 FILLER_0_26_307
*811 FILLER_0_26_309
*812 FILLER_0_26_321
*813 FILLER_0_26_333
*814 FILLER_0_26_345
*815 FILLER_0_26_41
*816 FILLER_0_26_53
*817 FILLER_0_26_65
*818 FILLER_0_26_77
*819 FILLER_0_26_83
*820 FILLER_0_26_85
*821 FILLER_0_26_97
*822 FILLER_0_27_105
*823 FILLER_0_27_111
*824 FILLER_0_27_113
*825 FILLER_0_27_125
*826 FILLER_0_27_137
*827 FILLER_0_27_149
*828 FILLER_0_27_15
*829 FILLER_0_27_161
*830 FILLER_0_27_167
*831 FILLER_0_27_169
*832 FILLER_0_27_181
*833 FILLER_0_27_193
*834 FILLER_0_27_205
*835 FILLER_0_27_217
*836 FILLER_0_27_223
*837 FILLER_0_27_225
*838 FILLER_0_27_237
*839 FILLER_0_27_249
*840 FILLER_0_27_261
*841 FILLER_0_27_27
*842 FILLER_0_27_273
*843 FILLER_0_27_279
*844 FILLER_0_27_281
*845 FILLER_0_27_293
*846 FILLER_0_27_3
*847 FILLER_0_27_305
*848 FILLER_0_27_317
*849 FILLER_0_27_329
*850 FILLER_0_27_335
*851 FILLER_0_27_337
*852 FILLER_0_27_349
*853 FILLER_0_27_39
*854 FILLER_0_27_51
*855 FILLER_0_27_55
*856 FILLER_0_27_57
*857 FILLER_0_27_69
*858 FILLER_0_27_81
*859 FILLER_0_27_93
*860 FILLER_0_28_109
*861 FILLER_0_28_121
*862 FILLER_0_28_133
*863 FILLER_0_28_139
*864 FILLER_0_28_141
*865 FILLER_0_28_15
*866 FILLER_0_28_153
*867 FILLER_0_28_165
*868 FILLER_0_28_177
*869 FILLER_0_28_189
*870 FILLER_0_28_195
*871 FILLER_0_28_197
*872 FILLER_0_28_209
*873 FILLER_0_28_221
*874 FILLER_0_28_233
*875 FILLER_0_28_245
*876 FILLER_0_28_251
*877 FILLER_0_28_253
*878 FILLER_0_28_265
*879 FILLER_0_28_27
*880 FILLER_0_28_277
*881 FILLER_0_28_289
*882 FILLER_0_28_29
*883 FILLER_0_28_3
*884 FILLER_0_28_301
*885 FILLER_0_28_307
*886 FILLER_0_28_309
*887 FILLER_0_28_321
*888 FILLER_0_28_333
*889 FILLER_0_28_345
*890 FILLER_0_28_41
*891 FILLER_0_28_53
*892 FILLER_0_28_65
*893 FILLER_0_28_77
*894 FILLER_0_28_83
*895 FILLER_0_28_85
*896 FILLER_0_28_97
*897 FILLER_0_29_105
*898 FILLER_0_29_111
*899 FILLER_0_29_113
*900 FILLER_0_29_125
*901 FILLER_0_29_137
*902 FILLER_0_29_149
*903 FILLER_0_29_15
*904 FILLER_0_29_161
*905 FILLER_0_29_167
*906 FILLER_0_29_169
*907 FILLER_0_29_181
*908 FILLER_0_29_193
*909 FILLER_0_29_205
*910 FILLER_0_29_217
*911 FILLER_0_29_223
*912 FILLER_0_29_225
*913 FILLER_0_29_237
*914 FILLER_0_29_249
*915 FILLER_0_29_261
*916 FILLER_0_29_27
*917 FILLER_0_29_273
*918 FILLER_0_29_279
*919 FILLER_0_29_281
*920 FILLER_0_29_293
*921 FILLER_0_29_3
*922 FILLER_0_29_305
*923 FILLER_0_29_317
*924 FILLER_0_29_329
*925 FILLER_0_29_335
*926 FILLER_0_29_337
*927 FILLER_0_29_349
*928 FILLER_0_29_39
*929 FILLER_0_29_51
*930 FILLER_0_29_55
*931 FILLER_0_29_57
*932 FILLER_0_29_69
*933 FILLER_0_29_81
*934 FILLER_0_29_93
*935 FILLER_0_2_109
*936 FILLER_0_2_121
*937 FILLER_0_2_133
*938 FILLER_0_2_139
*939 FILLER_0_2_141
*940 FILLER_0_2_15
*941 FILLER_0_2_153
*942 FILLER_0_2_165
*943 FILLER_0_2_177
*944 FILLER_0_2_189
*945 FILLER_0_2_195
*946 FILLER_0_2_197
*947 FILLER_0_2_209
*948 FILLER_0_2_221
*949 FILLER_0_2_233
*950 FILLER_0_2_245
*951 FILLER_0_2_251
*952 FILLER_0_2_253
*953 FILLER_0_2_265
*954 FILLER_0_2_27
*955 FILLER_0_2_277
*956 FILLER_0_2_289
*957 FILLER_0_2_29
*958 FILLER_0_2_3
*959 FILLER_0_2_301
*960 FILLER_0_2_307
*961 FILLER_0_2_309
*962 FILLER_0_2_321
*963 FILLER_0_2_333
*964 FILLER_0_2_345
*965 FILLER_0_2_41
*966 FILLER_0_2_53
*967 FILLER_0_2_65
*968 FILLER_0_2_77
*969 FILLER_0_2_83
*970 FILLER_0_2_85
*971 FILLER_0_2_97
*972 FILLER_0_30_109
*973 FILLER_0_30_121
*974 FILLER_0_30_133
*975 FILLER_0_30_139
*976 FILLER_0_30_141
*977 FILLER_0_30_15
*978 FILLER_0_30_153
*979 FILLER_0_30_165
*980 FILLER_0_30_177
*981 FILLER_0_30_189
*982 FILLER_0_30_195
*983 FILLER_0_30_197
*984 FILLER_0_30_209
*985 FILLER_0_30_221
*986 FILLER_0_30_233
*987 FILLER_0_30_245
*988 FILLER_0_30_251
*989 FILLER_0_30_253
*990 FILLER_0_30_265
*991 FILLER_0_30_27
*992 FILLER_0_30_277
*993 FILLER_0_30_289
*994 FILLER_0_30_29
*995 FILLER_0_30_3
*996 FILLER_0_30_301
*997 FILLER_0_30_307
*998 FILLER_0_30_309
*999 FILLER_0_30_321
*1000 FILLER_0_30_333
*1001 FILLER_0_30_345
*1002 FILLER_0_30_41
*1003 FILLER_0_30_53
*1004 FILLER_0_30_65
*1005 FILLER_0_30_77
*1006 FILLER_0_30_83
*1007 FILLER_0_30_85
*1008 FILLER_0_30_97
*1009 FILLER_0_31_105
*1010 FILLER_0_31_111
*1011 FILLER_0_31_113
*1012 FILLER_0_31_125
*1013 FILLER_0_31_137
*1014 FILLER_0_31_149
*1015 FILLER_0_31_15
*1016 FILLER_0_31_161
*1017 FILLER_0_31_167
*1018 FILLER_0_31_169
*1019 FILLER_0_31_181
*1020 FILLER_0_31_193
*1021 FILLER_0_31_205
*1022 FILLER_0_31_217
*1023 FILLER_0_31_223
*1024 FILLER_0_31_225
*1025 FILLER_0_31_237
*1026 FILLER_0_31_249
*1027 FILLER_0_31_261
*1028 FILLER_0_31_27
*1029 FILLER_0_31_273
*1030 FILLER_0_31_279
*1031 FILLER_0_31_281
*1032 FILLER_0_31_293
*1033 FILLER_0_31_3
*1034 FILLER_0_31_305
*1035 FILLER_0_31_317
*1036 FILLER_0_31_329
*1037 FILLER_0_31_335
*1038 FILLER_0_31_337
*1039 FILLER_0_31_349
*1040 FILLER_0_31_39
*1041 FILLER_0_31_51
*1042 FILLER_0_31_55
*1043 FILLER_0_31_57
*1044 FILLER_0_31_69
*1045 FILLER_0_31_81
*1046 FILLER_0_31_93
*1047 FILLER_0_32_109
*1048 FILLER_0_32_121
*1049 FILLER_0_32_129
*1050 FILLER_0_32_134
*1051 FILLER_0_32_141
*1052 FILLER_0_32_15
*1053 FILLER_0_32_170
*1054 FILLER_0_32_174
*1055 FILLER_0_32_239
*1056 FILLER_0_32_251
*1057 FILLER_0_32_253
*1058 FILLER_0_32_265
*1059 FILLER_0_32_27
*1060 FILLER_0_32_277
*1061 FILLER_0_32_289
*1062 FILLER_0_32_29
*1063 FILLER_0_32_3
*1064 FILLER_0_32_301
*1065 FILLER_0_32_307
*1066 FILLER_0_32_309
*1067 FILLER_0_32_321
*1068 FILLER_0_32_333
*1069 FILLER_0_32_345
*1070 FILLER_0_32_41
*1071 FILLER_0_32_53
*1072 FILLER_0_32_65
*1073 FILLER_0_32_77
*1074 FILLER_0_32_83
*1075 FILLER_0_32_85
*1076 FILLER_0_32_97
*1077 FILLER_0_33_105
*1078 FILLER_0_33_111
*1079 FILLER_0_33_113
*1080 FILLER_0_33_125
*1081 FILLER_0_33_148
*1082 FILLER_0_33_15
*1083 FILLER_0_33_164
*1084 FILLER_0_33_169
*1085 FILLER_0_33_187
*1086 FILLER_0_33_193
*1087 FILLER_0_33_206
*1088 FILLER_0_33_216
*1089 FILLER_0_33_222
*1090 FILLER_0_33_234
*1091 FILLER_0_33_246
*1092 FILLER_0_33_258
*1093 FILLER_0_33_27
*1094 FILLER_0_33_270
*1095 FILLER_0_33_278
*1096 FILLER_0_33_281
*1097 FILLER_0_33_293
*1098 FILLER_0_33_3
*1099 FILLER_0_33_305
*1100 FILLER_0_33_317
*1101 FILLER_0_33_329
*1102 FILLER_0_33_335
*1103 FILLER_0_33_337
*1104 FILLER_0_33_349
*1105 FILLER_0_33_39
*1106 FILLER_0_33_51
*1107 FILLER_0_33_55
*1108 FILLER_0_33_57
*1109 FILLER_0_33_69
*1110 FILLER_0_33_81
*1111 FILLER_0_33_93
*1112 FILLER_0_34_109
*1113 FILLER_0_34_121
*1114 FILLER_0_34_132
*1115 FILLER_0_34_141
*1116 FILLER_0_34_15
*1117 FILLER_0_34_171
*1118 FILLER_0_34_195
*1119 FILLER_0_34_197
*1120 FILLER_0_34_221
*1121 FILLER_0_34_227
*1122 FILLER_0_34_259
*1123 FILLER_0_34_27
*1124 FILLER_0_34_271
*1125 FILLER_0_34_283
*1126 FILLER_0_34_29
*1127 FILLER_0_34_295
*1128 FILLER_0_34_3
*1129 FILLER_0_34_307
*1130 FILLER_0_34_309
*1131 FILLER_0_34_321
*1132 FILLER_0_34_333
*1133 FILLER_0_34_345
*1134 FILLER_0_34_41
*1135 FILLER_0_34_53
*1136 FILLER_0_34_65
*1137 FILLER_0_34_77
*1138 FILLER_0_34_83
*1139 FILLER_0_34_85
*1140 FILLER_0_34_97
*1141 FILLER_0_35_105
*1142 FILLER_0_35_111
*1143 FILLER_0_35_113
*1144 FILLER_0_35_15
*1145 FILLER_0_35_164
*1146 FILLER_0_35_169
*1147 FILLER_0_35_182
*1148 FILLER_0_35_205
*1149 FILLER_0_35_212
*1150 FILLER_0_35_225
*1151 FILLER_0_35_242
*1152 FILLER_0_35_27
*1153 FILLER_0_35_271
*1154 FILLER_0_35_279
*1155 FILLER_0_35_281
*1156 FILLER_0_35_293
*1157 FILLER_0_35_3
*1158 FILLER_0_35_305
*1159 FILLER_0_35_317
*1160 FILLER_0_35_329
*1161 FILLER_0_35_335
*1162 FILLER_0_35_337
*1163 FILLER_0_35_349
*1164 FILLER_0_35_39
*1165 FILLER_0_35_51
*1166 FILLER_0_35_55
*1167 FILLER_0_35_57
*1168 FILLER_0_35_69
*1169 FILLER_0_35_81
*1170 FILLER_0_35_93
*1171 FILLER_0_36_109
*1172 FILLER_0_36_117
*1173 FILLER_0_36_141
*1174 FILLER_0_36_15
*1175 FILLER_0_36_152
*1176 FILLER_0_36_172
*1177 FILLER_0_36_184
*1178 FILLER_0_36_190
*1179 FILLER_0_36_233
*1180 FILLER_0_36_237
*1181 FILLER_0_36_247
*1182 FILLER_0_36_253
*1183 FILLER_0_36_263
*1184 FILLER_0_36_27
*1185 FILLER_0_36_275
*1186 FILLER_0_36_287
*1187 FILLER_0_36_29
*1188 FILLER_0_36_299
*1189 FILLER_0_36_3
*1190 FILLER_0_36_307
*1191 FILLER_0_36_309
*1192 FILLER_0_36_321
*1193 FILLER_0_36_333
*1194 FILLER_0_36_345
*1195 FILLER_0_36_41
*1196 FILLER_0_36_53
*1197 FILLER_0_36_65
*1198 FILLER_0_36_77
*1199 FILLER_0_36_83
*1200 FILLER_0_36_85
*1201 FILLER_0_36_97
*1202 FILLER_0_37_105
*1203 FILLER_0_37_111
*1204 FILLER_0_37_113
*1205 FILLER_0_37_125
*1206 FILLER_0_37_131
*1207 FILLER_0_37_139
*1208 FILLER_0_37_15
*1209 FILLER_0_37_163
*1210 FILLER_0_37_167
*1211 FILLER_0_37_169
*1212 FILLER_0_37_176
*1213 FILLER_0_37_185
*1214 FILLER_0_37_210
*1215 FILLER_0_37_218
*1216 FILLER_0_37_267
*1217 FILLER_0_37_27
*1218 FILLER_0_37_279
*1219 FILLER_0_37_281
*1220 FILLER_0_37_293
*1221 FILLER_0_37_3
*1222 FILLER_0_37_305
*1223 FILLER_0_37_317
*1224 FILLER_0_37_329
*1225 FILLER_0_37_335
*1226 FILLER_0_37_337
*1227 FILLER_0_37_349
*1228 FILLER_0_37_39
*1229 FILLER_0_37_51
*1230 FILLER_0_37_55
*1231 FILLER_0_37_57
*1232 FILLER_0_37_69
*1233 FILLER_0_37_81
*1234 FILLER_0_37_93
*1235 FILLER_0_38_104
*1236 FILLER_0_38_110
*1237 FILLER_0_38_116
*1238 FILLER_0_38_122
*1239 FILLER_0_38_128
*1240 FILLER_0_38_134
*1241 FILLER_0_38_141
*1242 FILLER_0_38_146
*1243 FILLER_0_38_15
*1244 FILLER_0_38_152
*1245 FILLER_0_38_158
*1246 FILLER_0_38_164
*1247 FILLER_0_38_169
*1248 FILLER_0_38_189
*1249 FILLER_0_38_194
*1250 FILLER_0_38_197
*1251 FILLER_0_38_202
*1252 FILLER_0_38_209
*1253 FILLER_0_38_221
*1254 FILLER_0_38_225
*1255 FILLER_0_38_234
*1256 FILLER_0_38_240
*1257 FILLER_0_38_244
*1258 FILLER_0_38_253
*1259 FILLER_0_38_265
*1260 FILLER_0_38_27
*1261 FILLER_0_38_277
*1262 FILLER_0_38_281
*1263 FILLER_0_38_29
*1264 FILLER_0_38_293
*1265 FILLER_0_38_297
*1266 FILLER_0_38_3
*1267 FILLER_0_38_319
*1268 FILLER_0_38_331
*1269 FILLER_0_38_335
*1270 FILLER_0_38_337
*1271 FILLER_0_38_349
*1272 FILLER_0_38_41
*1273 FILLER_0_38_53
*1274 FILLER_0_38_57
*1275 FILLER_0_38_68
*1276 FILLER_0_38_74
*1277 FILLER_0_38_80
*1278 FILLER_0_38_88
*1279 FILLER_0_38_92
*1280 FILLER_0_38_98
*1281 FILLER_0_3_105
*1282 FILLER_0_3_111
*1283 FILLER_0_3_113
*1284 FILLER_0_3_125
*1285 FILLER_0_3_137
*1286 FILLER_0_3_149
*1287 FILLER_0_3_15
*1288 FILLER_0_3_161
*1289 FILLER_0_3_167
*1290 FILLER_0_3_169
*1291 FILLER_0_3_181
*1292 FILLER_0_3_193
*1293 FILLER_0_3_205
*1294 FILLER_0_3_217
*1295 FILLER_0_3_223
*1296 FILLER_0_3_225
*1297 FILLER_0_3_237
*1298 FILLER_0_3_249
*1299 FILLER_0_3_261
*1300 FILLER_0_3_27
*1301 FILLER_0_3_273
*1302 FILLER_0_3_279
*1303 FILLER_0_3_281
*1304 FILLER_0_3_293
*1305 FILLER_0_3_3
*1306 FILLER_0_3_305
*1307 FILLER_0_3_317
*1308 FILLER_0_3_329
*1309 FILLER_0_3_335
*1310 FILLER_0_3_337
*1311 FILLER_0_3_349
*1312 FILLER_0_3_39
*1313 FILLER_0_3_51
*1314 FILLER_0_3_55
*1315 FILLER_0_3_57
*1316 FILLER_0_3_69
*1317 FILLER_0_3_81
*1318 FILLER_0_3_93
*1319 FILLER_0_4_109
*1320 FILLER_0_4_121
*1321 FILLER_0_4_133
*1322 FILLER_0_4_139
*1323 FILLER_0_4_141
*1324 FILLER_0_4_15
*1325 FILLER_0_4_153
*1326 FILLER_0_4_165
*1327 FILLER_0_4_177
*1328 FILLER_0_4_189
*1329 FILLER_0_4_195
*1330 FILLER_0_4_197
*1331 FILLER_0_4_209
*1332 FILLER_0_4_221
*1333 FILLER_0_4_233
*1334 FILLER_0_4_245
*1335 FILLER_0_4_251
*1336 FILLER_0_4_253
*1337 FILLER_0_4_265
*1338 FILLER_0_4_27
*1339 FILLER_0_4_277
*1340 FILLER_0_4_289
*1341 FILLER_0_4_29
*1342 FILLER_0_4_3
*1343 FILLER_0_4_301
*1344 FILLER_0_4_307
*1345 FILLER_0_4_309
*1346 FILLER_0_4_321
*1347 FILLER_0_4_333
*1348 FILLER_0_4_345
*1349 FILLER_0_4_41
*1350 FILLER_0_4_53
*1351 FILLER_0_4_65
*1352 FILLER_0_4_77
*1353 FILLER_0_4_83
*1354 FILLER_0_4_85
*1355 FILLER_0_4_97
*1356 FILLER_0_5_105
*1357 FILLER_0_5_111
*1358 FILLER_0_5_113
*1359 FILLER_0_5_125
*1360 FILLER_0_5_137
*1361 FILLER_0_5_149
*1362 FILLER_0_5_15
*1363 FILLER_0_5_161
*1364 FILLER_0_5_167
*1365 FILLER_0_5_169
*1366 FILLER_0_5_181
*1367 FILLER_0_5_193
*1368 FILLER_0_5_205
*1369 FILLER_0_5_217
*1370 FILLER_0_5_223
*1371 FILLER_0_5_225
*1372 FILLER_0_5_237
*1373 FILLER_0_5_249
*1374 FILLER_0_5_261
*1375 FILLER_0_5_27
*1376 FILLER_0_5_273
*1377 FILLER_0_5_279
*1378 FILLER_0_5_281
*1379 FILLER_0_5_293
*1380 FILLER_0_5_3
*1381 FILLER_0_5_305
*1382 FILLER_0_5_317
*1383 FILLER_0_5_329
*1384 FILLER_0_5_335
*1385 FILLER_0_5_337
*1386 FILLER_0_5_349
*1387 FILLER_0_5_39
*1388 FILLER_0_5_51
*1389 FILLER_0_5_55
*1390 FILLER_0_5_57
*1391 FILLER_0_5_69
*1392 FILLER_0_5_81
*1393 FILLER_0_5_93
*1394 FILLER_0_6_109
*1395 FILLER_0_6_121
*1396 FILLER_0_6_133
*1397 FILLER_0_6_139
*1398 FILLER_0_6_141
*1399 FILLER_0_6_15
*1400 FILLER_0_6_153
*1401 FILLER_0_6_165
*1402 FILLER_0_6_177
*1403 FILLER_0_6_189
*1404 FILLER_0_6_195
*1405 FILLER_0_6_197
*1406 FILLER_0_6_209
*1407 FILLER_0_6_221
*1408 FILLER_0_6_233
*1409 FILLER_0_6_245
*1410 FILLER_0_6_251
*1411 FILLER_0_6_253
*1412 FILLER_0_6_265
*1413 FILLER_0_6_27
*1414 FILLER_0_6_277
*1415 FILLER_0_6_289
*1416 FILLER_0_6_29
*1417 FILLER_0_6_3
*1418 FILLER_0_6_301
*1419 FILLER_0_6_307
*1420 FILLER_0_6_309
*1421 FILLER_0_6_321
*1422 FILLER_0_6_333
*1423 FILLER_0_6_345
*1424 FILLER_0_6_41
*1425 FILLER_0_6_53
*1426 FILLER_0_6_65
*1427 FILLER_0_6_77
*1428 FILLER_0_6_83
*1429 FILLER_0_6_85
*1430 FILLER_0_6_97
*1431 FILLER_0_7_105
*1432 FILLER_0_7_111
*1433 FILLER_0_7_113
*1434 FILLER_0_7_125
*1435 FILLER_0_7_137
*1436 FILLER_0_7_149
*1437 FILLER_0_7_15
*1438 FILLER_0_7_161
*1439 FILLER_0_7_167
*1440 FILLER_0_7_169
*1441 FILLER_0_7_181
*1442 FILLER_0_7_193
*1443 FILLER_0_7_205
*1444 FILLER_0_7_217
*1445 FILLER_0_7_223
*1446 FILLER_0_7_225
*1447 FILLER_0_7_237
*1448 FILLER_0_7_249
*1449 FILLER_0_7_261
*1450 FILLER_0_7_27
*1451 FILLER_0_7_273
*1452 FILLER_0_7_279
*1453 FILLER_0_7_281
*1454 FILLER_0_7_293
*1455 FILLER_0_7_3
*1456 FILLER_0_7_305
*1457 FILLER_0_7_317
*1458 FILLER_0_7_329
*1459 FILLER_0_7_335
*1460 FILLER_0_7_337
*1461 FILLER_0_7_349
*1462 FILLER_0_7_39
*1463 FILLER_0_7_51
*1464 FILLER_0_7_55
*1465 FILLER_0_7_57
*1466 FILLER_0_7_69
*1467 FILLER_0_7_81
*1468 FILLER_0_7_93
*1469 FILLER_0_8_109
*1470 FILLER_0_8_121
*1471 FILLER_0_8_133
*1472 FILLER_0_8_139