*SPEF "ieee 1481-1999"
*DESIGN "tt_um_vhdl_seven_segment_seconds"
*DATE "11:11:11 Fri 11 11, 1111"
*VENDOR "OpenRCX"
*PROGRAM "Parallel Extraction"
*VERSION "1.0"
*DESIGN_FLOW "NAME_SCOPE LOCAL" "PIN_CAP NONE"
*DIVIDER /
*DELIMITER :
*BUS_DELIMITER []
*T_UNIT 1 NS
*C_UNIT 1 PF
*R_UNIT 1 OHM
*L_UNIT 1 HENRY

*NAME_MAP
*3 clk
*4 ena
*5 rst_n
*6 ui_in[0]
*7 ui_in[1]
*8 ui_in[2]
*9 ui_in[3]
*10 ui_in[4]
*11 ui_in[5]
*12 ui_in[6]
*13 ui_in[7]
*14 uio_in[0]
*15 uio_in[1]
*16 uio_in[2]
*17 uio_in[3]
*18 uio_in[4]
*19 uio_in[5]
*20 uio_in[6]
*21 uio_in[7]
*22 uio_oe[0]
*23 uio_oe[1]
*24 uio_oe[2]
*25 uio_oe[3]
*26 uio_oe[4]
*27 uio_oe[5]
*28 uio_oe[6]
*29 uio_oe[7]
*30 uio_out[0]
*31 uio_out[1]
*32 uio_out[2]
*33 uio_out[3]
*34 uio_out[4]
*35 uio_out[5]
*36 uio_out[6]
*37 uio_out[7]
*38 uo_out[0]
*39 uo_out[1]
*40 uo_out[2]
*41 uo_out[3]
*42 uo_out[4]
*43 uo_out[5]
*44 uo_out[6]
*45 uo_out[7]
*46 _000_
*47 _001_
*48 _002_
*49 _003_
*50 _004_
*51 _005_
*52 _006_
*53 _007_
*54 _008_
*55 _009_
*56 _010_
*57 _011_
*58 _012_
*59 _013_
*60 _014_
*61 _015_
*62 _016_
*63 _017_
*64 _018_
*65 _019_
*66 _020_
*67 _021_
*68 _022_
*69 _023_
*70 _024_
*71 _025_
*72 _026_
*73 _027_
*74 _028_
*75 _029_
*76 _030_
*77 _031_
*78 _032_
*79 _033_
*80 _034_
*81 _035_
*82 _036_
*83 _037_
*84 _038_
*85 _039_
*86 _040_
*87 _041_
*88 _042_
*89 _043_
*90 _044_
*91 _045_
*92 _046_
*93 _047_
*94 _048_
*95 _049_
*96 _050_
*97 _051_
*98 _052_
*99 _053_
*100 _054_
*101 _055_
*102 _056_
*103 _057_
*104 _058_
*105 _059_
*106 _060_
*107 _061_
*108 _062_
*109 _063_
*110 _064_
*111 _065_
*112 _066_
*113 _067_
*114 _068_
*115 _069_
*116 _070_
*117 _071_
*118 _072_
*119 _073_
*120 _074_
*121 _075_
*122 _076_
*123 _077_
*124 _078_
*125 _079_
*126 _080_
*127 _081_
*128 _082_
*129 _083_
*130 _084_
*131 _085_
*132 _086_
*133 _087_
*134 _088_
*135 _089_
*136 _090_
*137 _091_
*138 _092_
*139 _093_
*140 _094_
*141 _095_
*142 _096_
*143 _097_
*144 _098_
*145 _099_
*146 _100_
*147 _101_
*148 _102_
*149 _103_
*150 _104_
*151 _105_
*152 _106_
*153 _107_
*154 _108_
*155 _109_
*156 _110_
*157 _111_
*158 _112_
*159 _113_
*160 _114_
*161 _115_
*162 _116_
*163 _117_
*164 _118_
*165 _119_
*166 _120_
*167 _121_
*168 _122_
*169 _123_
*170 _124_
*171 _125_
*172 _126_
*173 _127_
*174 _128_
*175 _129_
*176 _130_
*177 _131_
*178 _132_
*179 _133_
*180 _134_
*181 _135_
*182 _136_
*183 _137_
*184 _138_
*185 _139_
*186 _140_
*187 _141_
*188 _142_
*189 _143_
*190 _144_
*191 _145_
*192 _146_
*193 _147_
*194 _148_
*195 _149_
*196 _150_
*197 _151_
*198 _152_
*199 _153_
*200 _154_
*201 _155_
*202 _156_
*203 clknet_0_clk
*204 clknet_1_0__leaf_clk
*205 clknet_1_1__leaf_clk
*206 net1
*207 net10
*208 net11
*209 net12
*210 net13
*211 net14
*212 net15
*213 net16
*214 net17
*215 net18
*216 net19
*217 net2
*218 net20
*219 net21
*220 net22
*221 net23
*222 net24
*223 net25
*224 net26
*225 net27
*226 net28
*227 net29
*228 net3
*229 net30
*230 net31
*231 net32
*232 net33
*233 net34
*234 net35
*235 net36
*236 net37
*237 net38
*238 net39
*239 net4
*240 net40
*241 net41
*242 net5
*243 net6
*244 net7
*245 net8
*246 net9
*247 second_counter\[0\]
*248 second_counter\[10\]
*249 second_counter\[11\]
*250 second_counter\[12\]
*251 second_counter\[13\]
*252 second_counter\[14\]
*253 second_counter\[15\]
*254 second_counter\[16\]
*255 second_counter\[17\]
*256 second_counter\[18\]
*257 second_counter\[19\]
*258 second_counter\[1\]
*259 second_counter\[20\]
*260 second_counter\[21\]
*261 second_counter\[22\]
*262 second_counter\[23\]
*263 second_counter\[2\]
*264 second_counter\[3\]
*265 second_counter\[4\]
*266 second_counter\[5\]
*267 second_counter\[6\]
*268 second_counter\[7\]
*269 second_counter\[8\]
*270 second_counter\[9\]
*271 seg7_inst\.counter\[0\]
*272 seg7_inst\.counter\[1\]
*273 seg7_inst\.counter\[2\]
*274 seg7_inst\.counter\[3\]
*275 FILLER_0_0_109
*276 FILLER_0_0_113
*277 FILLER_0_0_125
*278 FILLER_0_0_137
*279 FILLER_0_0_141
*280 FILLER_0_0_15
*281 FILLER_0_0_153
*282 FILLER_0_0_165
*283 FILLER_0_0_169
*284 FILLER_0_0_181
*285 FILLER_0_0_193
*286 FILLER_0_0_197
*287 FILLER_0_0_209
*288 FILLER_0_0_221
*289 FILLER_0_0_225
*290 FILLER_0_0_237
*291 FILLER_0_0_249
*292 FILLER_0_0_253
*293 FILLER_0_0_265
*294 FILLER_0_0_27
*295 FILLER_0_0_277
*296 FILLER_0_0_281
*297 FILLER_0_0_29
*298 FILLER_0_0_293
*299 FILLER_0_0_3
*300 FILLER_0_0_305
*301 FILLER_0_0_309
*302 FILLER_0_0_321
*303 FILLER_0_0_41
*304 FILLER_0_0_53
*305 FILLER_0_0_57
*306 FILLER_0_0_69
*307 FILLER_0_0_81
*308 FILLER_0_0_85
*309 FILLER_0_0_97
*310 FILLER_0_10_109
*311 FILLER_0_10_121
*312 FILLER_0_10_133
*313 FILLER_0_10_139
*314 FILLER_0_10_141
*315 FILLER_0_10_15
*316 FILLER_0_10_153
*317 FILLER_0_10_165
*318 FILLER_0_10_177
*319 FILLER_0_10_189
*320 FILLER_0_10_195
*321 FILLER_0_10_197
*322 FILLER_0_10_209
*323 FILLER_0_10_221
*324 FILLER_0_10_233
*325 FILLER_0_10_245
*326 FILLER_0_10_251
*327 FILLER_0_10_253
*328 FILLER_0_10_265
*329 FILLER_0_10_27
*330 FILLER_0_10_277
*331 FILLER_0_10_289
*332 FILLER_0_10_29
*333 FILLER_0_10_3
*334 FILLER_0_10_301
*335 FILLER_0_10_307
*336 FILLER_0_10_309
*337 FILLER_0_10_321
*338 FILLER_0_10_41
*339 FILLER_0_10_53
*340 FILLER_0_10_65
*341 FILLER_0_10_77
*342 FILLER_0_10_83
*343 FILLER_0_10_85
*344 FILLER_0_10_97
*345 FILLER_0_11_105
*346 FILLER_0_11_111
*347 FILLER_0_11_113
*348 FILLER_0_11_125
*349 FILLER_0_11_137
*350 FILLER_0_11_149
*351 FILLER_0_11_15
*352 FILLER_0_11_161
*353 FILLER_0_11_167
*354 FILLER_0_11_169
*355 FILLER_0_11_181
*356 FILLER_0_11_193
*357 FILLER_0_11_205
*358 FILLER_0_11_217
*359 FILLER_0_11_223
*360 FILLER_0_11_225
*361 FILLER_0_11_237
*362 FILLER_0_11_249
*363 FILLER_0_11_261
*364 FILLER_0_11_27
*365 FILLER_0_11_273
*366 FILLER_0_11_279
*367 FILLER_0_11_281
*368 FILLER_0_11_293
*369 FILLER_0_11_3
*370 FILLER_0_11_305
*371 FILLER_0_11_317
*372 FILLER_0_11_325
*373 FILLER_0_11_39
*374 FILLER_0_11_51
*375 FILLER_0_11_55
*376 FILLER_0_11_57
*377 FILLER_0_11_69
*378 FILLER_0_11_81
*379 FILLER_0_11_93
*380 FILLER_0_12_109
*381 FILLER_0_12_121
*382 FILLER_0_12_133
*383 FILLER_0_12_139
*384 FILLER_0_12_141
*385 FILLER_0_12_15
*386 FILLER_0_12_153
*387 FILLER_0_12_165
*388 FILLER_0_12_177
*389 FILLER_0_12_189
*390 FILLER_0_12_195
*391 FILLER_0_12_197
*392 FILLER_0_12_209
*393 FILLER_0_12_221
*394 FILLER_0_12_233
*395 FILLER_0_12_245
*396 FILLER_0_12_251
*397 FILLER_0_12_253
*398 FILLER_0_12_265
*399 FILLER_0_12_27
*400 FILLER_0_12_277
*401 FILLER_0_12_289
*402 FILLER_0_12_29
*403 FILLER_0_12_3
*404 FILLER_0_12_301
*405 FILLER_0_12_307
*406 FILLER_0_12_309
*407 FILLER_0_12_321
*408 FILLER_0_12_41
*409 FILLER_0_12_53
*410 FILLER_0_12_65
*411 FILLER_0_12_77
*412 FILLER_0_12_83
*413 FILLER_0_12_85
*414 FILLER_0_12_97
*415 FILLER_0_13_105
*416 FILLER_0_13_111
*417 FILLER_0_13_113
*418 FILLER_0_13_125
*419 FILLER_0_13_137
*420 FILLER_0_13_149
*421 FILLER_0_13_15
*422 FILLER_0_13_161
*423 FILLER_0_13_167
*424 FILLER_0_13_169
*425 FILLER_0_13_181
*426 FILLER_0_13_193
*427 FILLER_0_13_205
*428 FILLER_0_13_217
*429 FILLER_0_13_223
*430 FILLER_0_13_225
*431 FILLER_0_13_237
*432 FILLER_0_13_249
*433 FILLER_0_13_261
*434 FILLER_0_13_27
*435 FILLER_0_13_273
*436 FILLER_0_13_279
*437 FILLER_0_13_281
*438 FILLER_0_13_293
*439 FILLER_0_13_3
*440 FILLER_0_13_305
*441 FILLER_0_13_317
*442 FILLER_0_13_325
*443 FILLER_0_13_39
*444 FILLER_0_13_51
*445 FILLER_0_13_55
*446 FILLER_0_13_57
*447 FILLER_0_13_69
*448 FILLER_0_13_81
*449 FILLER_0_13_93
*450 FILLER_0_14_109
*451 FILLER_0_14_121
*452 FILLER_0_14_133
*453 FILLER_0_14_139
*454 FILLER_0_14_141
*455 FILLER_0_14_15
*456 FILLER_0_14_153
*457 FILLER_0_14_165
*458 FILLER_0_14_177
*459 FILLER_0_14_189
*460 FILLER_0_14_195
*461 FILLER_0_14_197
*462 FILLER_0_14_209
*463 FILLER_0_14_221
*464 FILLER_0_14_233
*465 FILLER_0_14_245
*466 FILLER_0_14_251
*467 FILLER_0_14_253
*468 FILLER_0_14_265
*469 FILLER_0_14_27
*470 FILLER_0_14_277
*471 FILLER_0_14_289
*472 FILLER_0_14_29
*473 FILLER_0_14_3
*474 FILLER_0_14_301
*475 FILLER_0_14_307
*476 FILLER_0_14_309
*477 FILLER_0_14_321
*478 FILLER_0_14_41
*479 FILLER_0_14_53
*480 FILLER_0_14_65
*481 FILLER_0_14_77
*482 FILLER_0_14_83
*483 FILLER_0_14_85
*484 FILLER_0_14_97
*485 FILLER_0_15_105
*486 FILLER_0_15_111
*487 FILLER_0_15_113
*488 FILLER_0_15_125
*489 FILLER_0_15_137
*490 FILLER_0_15_149
*491 FILLER_0_15_15
*492 FILLER_0_15_161
*493 FILLER_0_15_167
*494 FILLER_0_15_169
*495 FILLER_0_15_181
*496 FILLER_0_15_193
*497 FILLER_0_15_205
*498 FILLER_0_15_217
*499 FILLER_0_15_223
*500 FILLER_0_15_225
*501 FILLER_0_15_237
*502 FILLER_0_15_249
*503 FILLER_0_15_261
*504 FILLER_0_15_27
*505 FILLER_0_15_273
*506 FILLER_0_15_279
*507 FILLER_0_15_281
*508 FILLER_0_15_293
*509 FILLER_0_15_3
*510 FILLER_0_15_305
*511 FILLER_0_15_317
*512 FILLER_0_15_325
*513 FILLER_0_15_39
*514 FILLER_0_15_51
*515 FILLER_0_15_55
*516 FILLER_0_15_57
*517 FILLER_0_15_69
*518 FILLER_0_15_81
*519 FILLER_0_15_93
*520 FILLER_0_16_109
*521 FILLER_0_16_121
*522 FILLER_0_16_133
*523 FILLER_0_16_139
*524 FILLER_0_16_141
*525 FILLER_0_16_15
*526 FILLER_0_16_153
*527 FILLER_0_16_165
*528 FILLER_0_16_177
*529 FILLER_0_16_189
*530 FILLER_0_16_195
*531 FILLER_0_16_197
*532 FILLER_0_16_209
*533 FILLER_0_16_221
*534 FILLER_0_16_233
*535 FILLER_0_16_245
*536 FILLER_0_16_251
*537 FILLER_0_16_253
*538 FILLER_0_16_265
*539 FILLER_0_16_27
*540 FILLER_0_16_277
*541 FILLER_0_16_289
*542 FILLER_0_16_29
*543 FILLER_0_16_3
*544 FILLER_0_16_301
*545 FILLER_0_16_307
*546 FILLER_0_16_309
*547 FILLER_0_16_321
*548 FILLER_0_16_41
*549 FILLER_0_16_53
*550 FILLER_0_16_65
*551 FILLER_0_16_77
*552 FILLER_0_16_83
*553 FILLER_0_16_85
*554 FILLER_0_16_97
*555 FILLER_0_17_105
*556 FILLER_0_17_111
*557 FILLER_0_17_113
*558 FILLER_0_17_125
*559 FILLER_0_17_137
*560 FILLER_0_17_149
*561 FILLER_0_17_15
*562 FILLER_0_17_161
*563 FILLER_0_17_167
*564 FILLER_0_17_169
*565 FILLER_0_17_181
*566 FILLER_0_17_193
*567 FILLER_0_17_205
*568 FILLER_0_17_217
*569 FILLER_0_17_223
*570 FILLER_0_17_225
*571 FILLER_0_17_237
*572 FILLER_0_17_249
*573 FILLER_0_17_261
*574 FILLER_0_17_27
*575 FILLER_0_17_273
*576 FILLER_0_17_279
*577 FILLER_0_17_281
*578 FILLER_0_17_293
*579 FILLER_0_17_3
*580 FILLER_0_17_305
*581 FILLER_0_17_317
*582 FILLER_0_17_325
*583 FILLER_0_17_39
*584 FILLER_0_17_51
*585 FILLER_0_17_55
*586 FILLER_0_17_57
*587 FILLER_0_17_69
*588 FILLER_0_17_81
*589 FILLER_0_17_93
*590 FILLER_0_18_109
*591 FILLER_0_18_121
*592 FILLER_0_18_133
*593 FILLER_0_18_139
*594 FILLER_0_18_141
*595 FILLER_0_18_15
*596 FILLER_0_18_153
*597 FILLER_0_18_165
*598 FILLER_0_18_177
*599 FILLER_0_18_189
*600 FILLER_0_18_195
*601 FILLER_0_18_197
*602 FILLER_0_18_209
*603 FILLER_0_18_221
*604 FILLER_0_18_233
*605 FILLER_0_18_245
*606 FILLER_0_18_251
*607 FILLER_0_18_253
*608 FILLER_0_18_265
*609 FILLER_0_18_27
*610 FILLER_0_18_277
*611 FILLER_0_18_289
*612 FILLER_0_18_29
*613 FILLER_0_18_3
*614 FILLER_0_18_301
*615 FILLER_0_18_307
*616 FILLER_0_18_309
*617 FILLER_0_18_321
*618 FILLER_0_18_41
*619 FILLER_0_18_53
*620 FILLER_0_18_65
*621 FILLER_0_18_77
*622 FILLER_0_18_83
*623 FILLER_0_18_85
*624 FILLER_0_18_97
*625 FILLER_0_19_105
*626 FILLER_0_19_111
*627 FILLER_0_19_113
*628 FILLER_0_19_125
*629 FILLER_0_19_137
*630 FILLER_0_19_149
*631 FILLER_0_19_15
*632 FILLER_0_19_161
*633 FILLER_0_19_167
*634 FILLER_0_19_169
*635 FILLER_0_19_181
*636 FILLER_0_19_193
*637 FILLER_0_19_205
*638 FILLER_0_19_217
*639 FILLER_0_19_223
*640 FILLER_0_19_225
*641 FILLER_0_19_237
*642 FILLER_0_19_249
*643 FILLER_0_19_261
*644 FILLER_0_19_27
*645 FILLER_0_19_273
*646 FILLER_0_19_279
*647 FILLER_0_19_281
*648 FILLER_0_19_293
*649 FILLER_0_19_3
*650 FILLER_0_19_305
*651 FILLER_0_19_317
*652 FILLER_0_19_325
*653 FILLER_0_19_39
*654 FILLER_0_19_51
*655 FILLER_0_19_55
*656 FILLER_0_19_57
*657 FILLER_0_19_69
*658 FILLER_0_19_81
*659 FILLER_0_19_93
*660 FILLER_0_1_105
*661 FILLER_0_1_111
*662 FILLER_0_1_113
*663 FILLER_0_1_125
*664 FILLER_0_1_137
*665 FILLER_0_1_149
*666 FILLER_0_1_15
*667 FILLER_0_1_161
*668 FILLER_0_1_167
*669 FILLER_0_1_169
*670 FILLER_0_1_181
*671 FILLER_0_1_193
*672 FILLER_0_1_205
*673 FILLER_0_1_217
*674 FILLER_0_1_223
*675 FILLER_0_1_225
*676 FILLER_0_1_237
*677 FILLER_0_1_249
*678 FILLER_0_1_261
*679 FILLER_0_1_27
*680 FILLER_0_1_273
*681 FILLER_0_1_279
*682 FILLER_0_1_281
*683 FILLER_0_1_293
*684 FILLER_0_1_3
*685 FILLER_0_1_305
*686 FILLER_0_1_317
*687 FILLER_0_1_325
*688 FILLER_0_1_39
*689 FILLER_0_1_51
*690 FILLER_0_1_55
*691 FILLER_0_1_57
*692 FILLER_0_1_69
*693 FILLER_0_1_81
*694 FILLER_0_1_93
*695 FILLER_0_20_109
*696 FILLER_0_20_121
*697 FILLER_0_20_133
*698 FILLER_0_20_139
*699 FILLER_0_20_141
*700 FILLER_0_20_15
*701 FILLER_0_20_153
*702 FILLER_0_20_165
*703 FILLER_0_20_177
*704 FILLER_0_20_189
*705 FILLER_0_20_195
*706 FILLER_0_20_197
*707 FILLER_0_20_209
*708 FILLER_0_20_221
*709 FILLER_0_20_233
*710 FILLER_0_20_245
*711 FILLER_0_20_251
*712 FILLER_0_20_253
*713 FILLER_0_20_265
*714 FILLER_0_20_27
*715 FILLER_0_20_277
*716 FILLER_0_20_289
*717 FILLER_0_20_29
*718 FILLER_0_20_3
*719 FILLER_0_20_301
*720 FILLER_0_20_307
*721 FILLER_0_20_309
*722 FILLER_0_20_321
*723 FILLER_0_20_41
*724 FILLER_0_20_53
*725 FILLER_0_20_65
*726 FILLER_0_20_77
*727 FILLER_0_20_83
*728 FILLER_0_20_85
*729 FILLER_0_20_97
*730 FILLER_0_21_105
*731 FILLER_0_21_111
*732 FILLER_0_21_113
*733 FILLER_0_21_125
*734 FILLER_0_21_137
*735 FILLER_0_21_149
*736 FILLER_0_21_15
*737 FILLER_0_21_161
*738 FILLER_0_21_167
*739 FILLER_0_21_169
*740 FILLER_0_21_181
*741 FILLER_0_21_193
*742 FILLER_0_21_205
*743 FILLER_0_21_217
*744 FILLER_0_21_223
*745 FILLER_0_21_225
*746 FILLER_0_21_237
*747 FILLER_0_21_249
*748 FILLER_0_21_261
*749 FILLER_0_21_27
*750 FILLER_0_21_273
*751 FILLER_0_21_279
*752 FILLER_0_21_281
*753 FILLER_0_21_293
*754 FILLER_0_21_3
*755 FILLER_0_21_305
*756 FILLER_0_21_317
*757 FILLER_0_21_325
*758 FILLER_0_21_39
*759 FILLER_0_21_51
*760 FILLER_0_21_55
*761 FILLER_0_21_57
*762 FILLER_0_21_69
*763 FILLER_0_21_81
*764 FILLER_0_21_93
*765 FILLER_0_22_109
*766 FILLER_0_22_121
*767 FILLER_0_22_133
*768 FILLER_0_22_139
*769 FILLER_0_22_141
*770 FILLER_0_22_15
*771 FILLER_0_22_153
*772 FILLER_0_22_165
*773 FILLER_0_22_177
*774 FILLER_0_22_189
*775 FILLER_0_22_195
*776 FILLER_0_22_197
*777 FILLER_0_22_209
*778 FILLER_0_22_221
*779 FILLER_0_22_233
*780 FILLER_0_22_245
*781 FILLER_0_22_251
*782 FILLER_0_22_253
*783 FILLER_0_22_265
*784 FILLER_0_22_27
*785 FILLER_0_22_277
*786 FILLER_0_22_289
*787 FILLER_0_22_29
*788 FILLER_0_22_3
*789 FILLER_0_22_301
*790 FILLER_0_22_307
*791 FILLER_0_22_309
*792 FILLER_0_22_321
*793 FILLER_0_22_41
*794 FILLER_0_22_53
*795 FILLER_0_22_65
*796 FILLER_0_22_77
*797 FILLER_0_22_83
*798 FILLER_0_22_85
*799 FILLER_0_22_97
*800 FILLER_0_23_105
*801 FILLER_0_23_111
*802 FILLER_0_23_113
*803 FILLER_0_23_125
*804 FILLER_0_23_137
*805 FILLER_0_23_149
*806 FILLER_0_23_15
*807 FILLER_0_23_161
*808 FILLER_0_23_167
*809 FILLER_0_23_169
*810 FILLER_0_23_181
*811 FILLER_0_23_193
*812 FILLER_0_23_205
*813 FILLER_0_23_217
*814 FILLER_0_23_223
*815 FILLER_0_23_225
*816 FILLER_0_23_237
*817 FILLER_0_23_249
*818 FILLER_0_23_261
*819 FILLER_0_23_27
*820 FILLER_0_23_273
*821 FILLER_0_23_279
*822 FILLER_0_23_281
*823 FILLER_0_23_293
*824 FILLER_0_23_3
*825 FILLER_0_23_305
*826 FILLER_0_23_317
*827 FILLER_0_23_325
*828 FILLER_0_23_39
*829 FILLER_0_23_51
*830 FILLER_0_23_55
*831 FILLER_0_23_57
*832 FILLER_0_23_69
*833 FILLER_0_23_81
*834 FILLER_0_23_93
*835 FILLER_0_24_109
*836 FILLER_0_24_121
*837 FILLER_0_24_133
*838 FILLER_0_24_139
*839 FILLER_0_24_141
*840 FILLER_0_24_15
*841 FILLER_0_24_153
*842 FILLER_0_24_165
*843 FILLER_0_24_177
*844 FILLER_0_24_189
*845 FILLER_0_24_195
*846 FILLER_0_24_197
*847 FILLER_0_24_209
*848 FILLER_0_24_221
*849 FILLER_0_24_233
*850 FILLER_0_24_245
*851 FILLER_0_24_251
*852 FILLER_0_24_253
*853 FILLER_0_24_265
*854 FILLER_0_24_27
*855 FILLER_0_24_277
*856 FILLER_0_24_289
*857 FILLER_0_24_29
*858 FILLER_0_24_3
*859 FILLER_0_24_301
*860 FILLER_0_24_307
*861 FILLER_0_24_309
*862 FILLER_0_24_321
*863 FILLER_0_24_41
*864 FILLER_0_24_53
*865 FILLER_0_24_65
*866 FILLER_0_24_77
*867 FILLER_0_24_83
*868 FILLER_0_24_85
*869 FILLER_0_24_97
*870 FILLER_0_25_105
*871 FILLER_0_25_111
*872 FILLER_0_25_113
*873 FILLER_0_25_125
*874 FILLER_0_25_137
*875 FILLER_0_25_149
*876 FILLER_0_25_15
*877 FILLER_0_25_161
*878 FILLER_0_25_167
*879 FILLER_0_25_169
*880 FILLER_0_25_181
*881 FILLER_0_25_193
*882 FILLER_0_25_205
*883 FILLER_0_25_217
*884 FILLER_0_25_223
*885 FILLER_0_25_225
*886 FILLER_0_25_237
*887 FILLER_0_25_249
*888 FILLER_0_25_261
*889 FILLER_0_25_27
*890 FILLER_0_25_273
*891 FILLER_0_25_279
*892 FILLER_0_25_281
*893 FILLER_0_25_293
*894 FILLER_0_25_3
*895 FILLER_0_25_305
*896 FILLER_0_25_317
*897 FILLER_0_25_325
*898 FILLER_0_25_39
*899 FILLER_0_25_51
*900 FILLER_0_25_55
*901 FILLER_0_25_57
*902 FILLER_0_25_69
*903 FILLER_0_25_81
*904 FILLER_0_25_93
*905 FILLER_0_26_109
*906 FILLER_0_26_121
*907 FILLER_0_26_133
*908 FILLER_0_26_139
*909 FILLER_0_26_141
*910 FILLER_0_26_15
*911 FILLER_0_26_153
*912 FILLER_0_26_165
*913 FILLER_0_26_177
*914 FILLER_0_26_189
*915 FILLER_0_26_195
*916 FILLER_0_26_197
*917 FILLER_0_26_209
*918 FILLER_0_26_221
*919 FILLER_0_26_229
*920 FILLER_0_26_247
*921 FILLER_0_26_251
*922 FILLER_0_26_253
*923 FILLER_0_26_265
*924 FILLER_0_26_27
*925 FILLER_0_26_277
*926 FILLER_0_26_289
*927 FILLER_0_26_29
*928 FILLER_0_26_3
*929 FILLER_0_26_301
*930 FILLER_0_26_307
*931 FILLER_0_26_309
*932 FILLER_0_26_321
*933 FILLER_0_26_41
*934 FILLER_0_26_53
*935 FILLER_0_26_65
*936 FILLER_0_26_77
*937 FILLER_0_26_83
*938 FILLER_0_26_85
*939 FILLER_0_26_97
*940 FILLER_0_27_105
*941 FILLER_0_27_111
*942 FILLER_0_27_113
*943 FILLER_0_27_125
*944 FILLER_0_27_137
*945 FILLER_0_27_149
*946 FILLER_0_27_15
*947 FILLER_0_27_161
*948 FILLER_0_27_167
*949 FILLER_0_27_169
*950 FILLER_0_27_181
*951 FILLER_0_27_193
*952 FILLER_0_27_201
*953 FILLER_0_27_218
*954 FILLER_0_27_241
*955 FILLER_0_27_253
*956 FILLER_0_27_265
*957 FILLER_0_27_27
*958 FILLER_0_27_277
*959 FILLER_0_27_281
*960 FILLER_0_27_293
*961 FILLER_0_27_3
*962 FILLER_0_27_305
*963 FILLER_0_27_317
*964 FILLER_0_27_325
*965 FILLER_0_27_39
*966 FILLER_0_27_51
*967 FILLER_0_27_55
*968 FILLER_0_27_57
*969 FILLER_0_27_69
*970 FILLER_0_27_81
*971 FILLER_0_27_93
*972 FILLER_0_28_109
*973 FILLER_0_28_121
*974 FILLER_0_28_133
*975 FILLER_0_28_139
*976 FILLER_0_28_141
*977 FILLER_0_28_15
*978 FILLER_0_28_153
*979 FILLER_0_28_165
*980 FILLER_0_28_197
*981 FILLER_0_28_203
*982 FILLER_0_28_207
*983 FILLER_0_28_219
*984 FILLER_0_28_231
*985 FILLER_0_28_243
*986 FILLER_0_28_251
*987 FILLER_0_28_27
*988 FILLER_0_28_272
*989 FILLER_0_28_281
*990 FILLER_0_28_285
*991 FILLER_0_28_289
*992 FILLER_0_28_29
*993 FILLER_0_28_3
*994 FILLER_0_28_301
*995 FILLER_0_28_307
*996 FILLER_0_28_309
*997 FILLER_0_28_321
*998 FILLER_0_28_41
*999 FILLER_0_28_53
*1000 FILLER_0_28_65
*1001 FILLER_0_28_77
*1002 FILLER_0_28_83
*1003 FILLER_0_28_85
*1004 FILLER_0_28_97
*1005 FILLER_0_29_113
*1006 FILLER_0_29_124
*1007 FILLER_0_29_136
*1008 FILLER_0_29_148
*1009 FILLER_0_29_15
*1010 FILLER_0_29_169
*1011 FILLER_0_29_177
*1012 FILLER_0_29_192
*1013 FILLER_0_29_198
*1014 FILLER_0_29_212
*1015 FILLER_0_29_222
*1016 FILLER_0_29_225
*1017 FILLER_0_29_229
*1018 FILLER_0_29_247
*1019 FILLER_0_29_253
*1020 FILLER_0_29_261
*1021 FILLER_0_29_27
*1022 FILLER_0_29_273
*1023 FILLER_0_29_286
*1024 FILLER_0_29_3
*1025 FILLER_0_29_303
*1026 FILLER_0_29_315
*1027 FILLER_0_29_39
*1028 FILLER_0_29_51
*1029 FILLER_0_29_55
*1030 FILLER_0_29_57
*1031 FILLER_0_29_69
*1032 FILLER_0_29_81
*1033 FILLER_0_2_109
*1034 FILLER_0_2_121
*1035 FILLER_0_2_133
*1036 FILLER_0_2_139
*1037 FILLER_0_2_141
*1038 FILLER_0_2_15
*1039 FILLER_0_2_153
*1040 FILLER_0_2_165
*1041 FILLER_0_2_177
*1042 FILLER_0_2_189
*1043 FILLER_0_2_195
*1044 FILLER_0_2_197
*1045 FILLER_0_2_209
*1046 FILLER_0_2_221
*1047 FILLER_0_2_233
*1048 FILLER_0_2_245
*1049 FILLER_0_2_251
*1050 FILLER_0_2_253
*1051 FILLER_0_2_265
*1052 FILLER_0_2_27
*1053 FILLER_0_2_277
*1054 FILLER_0_2_289
*1055 FILLER_0_2_29
*1056 FILLER_0_2_3
*1057 FILLER_0_2_301
*1058 FILLER_0_2_307
*1059 FILLER_0_2_309
*1060 FILLER_0_2_321
*1061 FILLER_0_2_41
*1062 FILLER_0_2_53
*1063 FILLER_0_2_65
*1064 FILLER_0_2_77
*1065 FILLER_0_2_83
*1066 FILLER_0_2_85
*1067 FILLER_0_2_97
*1068 FILLER_0_30_107
*1069 FILLER_0_30_135
*1070 FILLER_0_30_139
*1071 FILLER_0_30_141
*1072 FILLER_0_30_145
*1073 FILLER_0_30_15
*1074 FILLER_0_30_157
*1075 FILLER_0_30_163
*1076 FILLER_0_30_167
*1077 FILLER_0_30_179
*1078 FILLER_0_30_186
*1079 FILLER_0_30_190
*1080 FILLER_0_30_194
*1081 FILLER_0_30_197
*1082 FILLER_0_30_209
*1083 FILLER_0_30_216
*1084 FILLER_0_30_226
*1085 FILLER_0_30_251
*1086 FILLER_0_30_253
*1087 FILLER_0_30_27
*1088 FILLER_0_30_275
*1089 FILLER_0_30_287
*1090 FILLER_0_30_29
*1091 FILLER_0_30_3
*1092 FILLER_0_30_303
*1093 FILLER_0_30_307
*1094 FILLER_0_30_309
*1095 FILLER_0_30_321
*1096 FILLER_0_30_41
*1097 FILLER_0_30_53
*1098 FILLER_0_30_65
*1099 FILLER_0_30_77
*1100 FILLER_0_30_83
*1101 FILLER_0_30_85
*1102 FILLER_0_30_93
*1103 FILLER_0_31_103
*1104 FILLER_0_31_111
*1105 FILLER_0_31_113
*1106 FILLER_0_31_122
*1107 FILLER_0_31_134
*1108 FILLER_0_31_15
*1109 FILLER_0_31_153
*1110 FILLER_0_31_157
*1111 FILLER_0_31_167
*1112 FILLER_0_31_185
*1113 FILLER_0_31_204
*1114 FILLER_0_31_219
*1115 FILLER_0_31_223
*1116 FILLER_0_31_225
*1117 FILLER_0_31_233
*1118 FILLER_0_31_238
*1119 FILLER_0_31_244
*1120 FILLER_0_31_252
*1121 FILLER_0_31_265
*1122 FILLER_0_31_27
*1123 FILLER_0_31_3
*1124 FILLER_0_31_300
*1125 FILLER_0_31_317
*1126 FILLER_0_31_325
*1127 FILLER_0_31_39
*1128 FILLER_0_31_51
*1129 FILLER_0_31_55
*1130 FILLER_0_31_57
*1131 FILLER_0_31_69
*1132 FILLER_0_31_91
*1133 FILLER_0_32_107
*1134 FILLER_0_32_124
*1135 FILLER_0_32_15
*1136 FILLER_0_32_171
*1137 FILLER_0_32_183
*1138 FILLER_0_32_249
*1139 FILLER_0_32_27
*1140 FILLER_0_32_273
*1141 FILLER_0_32_279
*1142 FILLER_0_32_29
*1143 FILLER_0_32_3
*1144 FILLER_0_32_301
*1145 FILLER_0_32_307
*1146 FILLER_0_32_309
*1147 FILLER_0_32_321
*1148 FILLER_0_32_41
*1149 FILLER_0_32_53
*1150 FILLER_0_32_65
*1151 FILLER_0_32_77
*1152 FILLER_0_32_82
*1153 FILLER_0_32_85
*1154 FILLER_0_32_93
*1155 FILLER_0_33_104
*1156 FILLER_0_33_113
*1157 FILLER_0_33_124
*1158 FILLER_0_33_131
*1159 FILLER_0_33_143
*1160 FILLER_0_33_15
*1161 FILLER_0_33_151
*1162 FILLER_0_33_158
*1163 FILLER_0_33_186
*1164 FILLER_0_33_194
*1165 FILLER_0_33_199
*1166 FILLER_0_33_210
*1167 FILLER_0_33_222
*1168 FILLER_0_33_229
*1169 FILLER_0_33_241
*1170 FILLER_0_33_248
*1171 FILLER_0_33_257
*1172 FILLER_0_33_264
*1173 FILLER_0_33_27
*1174 FILLER_0_33_278
*1175 FILLER_0_33_281
*1176 FILLER_0_33_293
*1177 FILLER_0_33_3
*1178 FILLER_0_33_304
*1179 FILLER_0_33_321
*1180 FILLER_0_33_39
*1181 FILLER_0_33_51
*1182 FILLER_0_33_55
*1183 FILLER_0_33_57
*1184 FILLER_0_33_69
*1185 FILLER_0_33_80
*1186 FILLER_0_33_92
*1187 FILLER_0_34_114
*1188 FILLER_0_34_130
*1189 FILLER_0_34_136
*1190 FILLER_0_34_15
*1191 FILLER_0_34_169
*1192 FILLER_0_34_177
*1193 FILLER_0_34_184
*1194 FILLER_0_34_195
*1195 FILLER_0_34_197
*1196 FILLER_0_34_202
*1197 FILLER_0_34_206
*1198 FILLER_0_34_218
*1199 FILLER_0_34_222
*1200 FILLER_0_34_226
*1201 FILLER_0_34_232
*1202 FILLER_0_34_251
*1203 FILLER_0_34_253
*1204 FILLER_0_34_265
*1205 FILLER_0_34_27
*1206 FILLER_0_34_29
*1207 FILLER_0_34_293
*1208 FILLER_0_34_3
*1209 FILLER_0_34_306
*1210 FILLER_0_34_309
*1211 FILLER_0_34_321
*1212 FILLER_0_34_41
*1213 FILLER_0_34_53
*1214 FILLER_0_34_65
*1215 FILLER_0_34_85
*1216 FILLER_0_34_93
*1217 FILLER_0_35_102
*1218 FILLER_0_35_110
*1219 FILLER_0_35_113
*1220 FILLER_0_35_121
*1221 FILLER_0_35_127
*1222 FILLER_0_35_139
*1223 FILLER_0_35_15
*1224 FILLER_0_35_151
*1225 FILLER_0_35_157
*1226 FILLER_0_35_165
*1227 FILLER_0_35_169
*1228 FILLER_0_35_178
*1229 FILLER_0_35_191
*1230 FILLER_0_35_199
*1231 FILLER_0_35_209
*1232 FILLER_0_35_221
*1233 FILLER_0_35_244
*1234 FILLER_0_35_248
*1235 FILLER_0_35_262
*1236 FILLER_0_35_27
*1237 FILLER_0_35_270
*1238 FILLER_0_35_279
*1239 FILLER_0_35_281
*1240 FILLER_0_35_293
*1241 FILLER_0_35_3
*1242 FILLER_0_35_302
*1243 FILLER_0_35_324
*1244 FILLER_0_35_39
*1245 FILLER_0_35_51
*1246 FILLER_0_35_55
*1247 FILLER_0_35_57
*1248 FILLER_0_35_69
*1249 FILLER_0_35_73
*1250 FILLER_0_35_90
*1251 FILLER_0_36_101
*1252 FILLER_0_36_105
*1253 FILLER_0_36_121
*1254 FILLER_0_36_139
*1255 FILLER_0_36_141
*1256 FILLER_0_36_15
*1257 FILLER_0_36_161
*1258 FILLER_0_36_167
*1259 FILLER_0_36_179
*1260 FILLER_0_36_184
*1261 FILLER_0_36_197
*1262 FILLER_0_36_201
*1263 FILLER_0_36_226
*1264 FILLER_0_36_239
*1265 FILLER_0_36_251
*1266 FILLER_0_36_253
*1267 FILLER_0_36_261
*1268 FILLER_0_36_27
*1269 FILLER_0_36_271
*1270 FILLER_0_36_279
*1271 FILLER_0_36_289
*1272 FILLER_0_36_29
*1273 FILLER_0_36_298
*1274 FILLER_0_36_3
*1275 FILLER_0_36_303
*1276 FILLER_0_36_307
*1277 FILLER_0_36_309
*1278 FILLER_0_36_321
*1279 FILLER_0_36_41
*1280 FILLER_0_36_53
*1281 FILLER_0_36_65
*1282 FILLER_0_36_80
*1283 FILLER_0_36_85
*1284 FILLER_0_36_91
*1285 FILLER_0_37_102
*1286 FILLER_0_37_113
*1287 FILLER_0_37_131
*1288 FILLER_0_37_136
*1289 FILLER_0_37_15
*1290 FILLER_0_37_154
*1291 FILLER_0_37_163
*1292 FILLER_0_37_186
*1293 FILLER_0_37_193
*1294 FILLER_0_37_218
*1295 FILLER_0_37_225
*1296 FILLER_0_37_231
*1297 FILLER_0_37_239
*1298 FILLER_0_37_250
*1299 FILLER_0_37_254
*1300 FILLER_0_37_262
*1301 FILLER_0_37_27
*1302 FILLER_0_37_281
*1303 FILLER_0_37_289
*1304 FILLER_0_37_299
*1305 FILLER_0_37_3
*1306 FILLER_0_37_316
*1307 FILLER_0_37_324
*1308 FILLER_0_37_39
*1309 FILLER_0_37_45
*1310 FILLER_0_37_49
*1311 FILLER_0_37_54
*1312 FILLER_0_37_60
*1313 FILLER_0_37_67
*1314 FILLER_0_37_73
*1315 FILLER_0_37_77
*1316 FILLER_0_37_92
*1317 FILLER_0_38_105
*1318 FILLER_0_38_111
*1319 FILLER_0_38_123
*1320 FILLER_0_38_141
*1321 FILLER_0_38_145
*1322 FILLER_0_38_15
*1323 FILLER_0_38_167
*1324 FILLER_0_38_169
*1325 FILLER_0_38_191
*1326 FILLER_0_38_195
*1327 FILLER_0_38_203
*1328 FILLER_0_38_215
*1329 FILLER_0_38_223
*1330 FILLER_0_38_225
*1331 FILLER_0_38_229
*1332 FILLER_0_38_242
*1333 FILLER_0_38_27
*1334 FILLER_0_38_273
*1335 FILLER_0_38_278
*1336 FILLER_0_38_29
*1337 FILLER_0_38_292
*1338 FILLER_0_38_3
*1339 FILLER_0_38_304
*1340 FILLER_0_38_309
*1341 FILLER_0_38_321
*1342 FILLER_0_38_37
*1343 FILLER_0_38_49
*1344 FILLER_0_38_55
*1345 FILLER_0_38_61
*1346 FILLER_0_38_67
*1347 FILLER_0_38_85
*1348 FILLER_0_38_93
*1349 FILLER_0_38_99
*1350 FILLER_0_3_105
*1351 FILLER_0_3_111
*1352 FILLER_0_3_113
*1353 FILLER_0_3_125
*1354 FILLER_0_3_137
*1355 FILLER_0_3_149
*1356 FILLER_0_3_15
*1357 FILLER_0_3_161
*1358 FILLER_0_3_167
*1359 FILLER_0_3_169
*1360 FILLER_0_3_181
*1361 FILLER_0_3_193
*1362 FILLER_0_3_205
*1363 FILLER_0_3_217
*1364 FILLER_0_3_223
*1365 FILLER_0_3_225
*1366 FILLER_0_3_237
*1367 FILLER_0_3_249
*1368 FILLER_0_3_261
*1369 FILLER_0_3_27
*1370 FILLER_0_3_273
*1371 FILLER_0_3_279
*1372 FILLER_0_3_281
*1373 FILLER_0_3_293
*1374 FILLER_0_3_3
*1375 FILLER_0_3_305
*1376 FILLER_0_3_317
*1377 FILLER_0_3_325
*1378 FILLER_0_3_39
*1379 FILLER_0_3_51
*1380 FILLER_0_3_55
*1381 FILLER_0_3_57
*1382 FILLER_0_3_69
*1383 FILLER_0_3_81
*1384 FILLER_0_3_93
*1385 FILLER_0_4_109
*1386 FILLER_0_4_121
*1387 FILLER_0_4_133
*1388 FILLER_0_4_139
*1389 FILLER_0_4_141
*1390 FILLER_0_4_15
*1391 FILLER_0_4_153
*1392 FILLER_0_4_165
*1393 FILLER_0_4_177
*1394 FILLER_0_4_189
*1395 FILLER_0_4_195
*1396 FILLER_0_4_197
*1397 FILLER_0_4_209
*1398 FILLER_0_4_221
*1399 FILLER_0_4_233
*1400 FILLER_0_4_245
*1401 FILLER_0_4_251
*1402 FILLER_0_4_253
*1403 FILLER_0_4_265
*1404 FILLER_0_4_27
*1405 FILLER_0_4_277
*1406 FILLER_0_4_289
*1407 FILLER_0_4_29
*1408 FILLER_0_4_3
*1409 FILLER_0_4_301
*1410 FILLER_0_4_307
*1411 FILLER_0_4_309
*1412 FILLER_0_4_321
*1413 FILLER_0_4_41
*1414 FILLER_0_4_53
*1415 FILLER_0_4_65
*1416 FILLER_0_4_77
*1417 FILLER_0_4_83
*1418 FILLER_0_4_85
*1419 FILLER_0_4_97
*1420 FILLER_0_5_105
*1421 FILLER_0_5_111
*1422 FILLER_0_5_113
*1423 FILLER_0_5_125
*1424 FILLER_0_5_137
*1425 FILLER_0_5_149
*1426 FILLER_0_5_15
*1427 FILLER_0_5_161
*1428 FILLER_0_5_167
*1429 FILLER_0_5_169
*1430 FILLER_0_5_181
*1431 FILLER_0_5_193
*1432 FILLER_0_5_205
*1433 FILLER_0_5_217
*1434 FILLER_0_5_223
*1435 FILLER_0_5_225
*1436 FILLER_0_5_237
*1437 FILLER_0_5_249
*1438 FILLER_0_5_261
*1439 FILLER_0_5_27
*1440 FILLER_0_5_273
*1441 FILLER_0_5_279
*1442 FILLER_0_5_281
*1443 FILLER_0_5_293
*1444 FILLER_0_5_3
*1445 FILLER_0_5_305
*1446 FILLER_0_5_317
*1447 FILLER_0_5_325
*1448 FILLER_0_5_39
*1449 FILLER_0_5_51
*1450 FILLER_0_5_55
*1451 FILLER_0_5_57
*1452 FILLER_0_5_69
*1453 FILLER_0_5_81
*1454 FILLER_0_5_93
*1455 FILLER_0_6_109
*1456 FILLER_0_6_121
*1457 FILLER_0_6_133
*1458 FILLER_0_6_139
*1459 FILLER_0_6_141
*1460 FILLER_0_6_15
*1461 FILLER_0_6_153
*1462 FILLER_0_6_165
*1463 FILLER_0_6_177
*1464 FILLER_0_6_189
*1465 FILLER_0_6_195
*1466 FILLER_0_6_197
*1467 FILLER_0_6_209
*1468 FILLER_0_6_221
*1469 FILLER_0_6_233
*1470 FILLER_0_6_245
*1471 FILLER_0_6_251
*1472 FILLER_0_6_253
*1473 FILLER_0_6_265
*1474 FILLER_0_6_27
*1475 FILLER_0_6_277
*1476 FILLER_0_6_289
*1477 FILLER_0_6_29
*1478 FILLER_0_6_3
*1479 FILLER_0_6_301
*1480 FILLER_0_6_307
*1481 FILLER_0_6_309
*1482 FILLER_0_6_321
*1483 FILLER_0_6_41
*1484 FILLER_0_6_53
*1485 FILLER_0_6_65
*1486 FILLER_0_6_77
*1487 FILLER_0_6_83
*1488 FILLER_0_6_85
*1489 FILLER_0_6_97
*1490 FILLER_0_7_105
*1491 FILLER_0_7_111
*1492 FILLER_0_7_113
*1493 FILLER_0_7_125
*1494 FILLER_0_7_137
*1495 FILLER_0_7_149
*1496 FILLER_0_7_15
*1497 FILLER_0_7_161
*1498 FILLER_0_7_167
*1499 FILLER_0_7_169
*1500 FILLER_0_7_181
*1501 FILLER_0_7_193
*1502 FILLER_0_7_205
*1503 FILLER_0_7_217
*1504 FILLER_0_7_223
*1505 FILLER_0_7_225
*1506 FILLER_0_7_237
*1507 FILLER_0_7_249
*1508 FILLER_0_7_261
*1509 FILLER_0_7_27
*1510 FILLER_0_7_273
*1511 FILLER_0_7_279
*1512 FILLER_0_7_281
*1513 FILLER_0_7_293
*1514 FILLER_0_7_3
*1515 FILLER_0_7_305
*1516 FILLER_0_7_317
*1517 FILLER_0_7_325
*1518 FILLER_0_7_39
*1519 FILLER_0_7_51
*1520 FILLER_0_7_55
*1521 FILLER_0_7_57
*1522 FILLER_0_7_69
*1523 FILLER_0_7_81
*1524 FILLER_0_7_93
*1525 FILLER_0_8_109
*1526 FILLER_0_8_121
*1527 FILLER_0_8_133
*1528 FILLER_0_8_139
*1529 FILLER_0_8_141