*SPEF "ieee 1481-1999"
*DESIGN "tt_um_wokwi_380409086743445505"
*DATE "11:11:11 Fri 11 11, 1111"
*VENDOR "OpenRCX"
*PROGRAM "Parallel Extraction"
*VERSION "1.0"
*DESIGN_FLOW "NAME_SCOPE LOCAL" "PIN_CAP NONE"
*DIVIDER /
*DELIMITER :
*BUS_DELIMITER []
*T_UNIT 1 NS
*C_UNIT 1 PF
*R_UNIT 1 OHM
*L_UNIT 1 HENRY

*NAME_MAP
*3 clk
*4 ena
*5 rst_n
*6 ui_in[0]
*7 ui_in[1]
*8 ui_in[2]
*9 ui_in[3]
*10 ui_in[4]
*11 ui_in[5]
*12 ui_in[6]
*13 ui_in[7]
*14 uio_in[0]
*15 uio_in[1]
*16 uio_in[2]
*17 uio_in[3]
*18 uio_in[4]
*19 uio_in[5]
*20 uio_in[6]
*21 uio_in[7]
*22 net21
*23 net22
*24 net23
*25 net24
*26 net1
*27 net2
*28 net3
*29 net4
*30 net5
*31 net6
*32 net7
*33 net8
*34 net9
*35 net10
*36 net11
*37 net12
*38 net13
*39 net14
*40 net15
*41 net16
*42 net17
*43 net18
*44 net19
*45 net20
*46 FILLER_0_0_109
*47 FILLER_0_0_113
*48 FILLER_0_0_125
*49 FILLER_0_0_137
*50 FILLER_0_0_141
*51 FILLER_0_0_15
*52 FILLER_0_0_153
*53 FILLER_0_0_165
*54 FILLER_0_0_169
*55 FILLER_0_0_181
*56 FILLER_0_0_193
*57 FILLER_0_0_197
*58 FILLER_0_0_209
*59 FILLER_0_0_221
*60 FILLER_0_0_225
*61 FILLER_0_0_237
*62 FILLER_0_0_249
*63 FILLER_0_0_253
*64 FILLER_0_0_265
*65 FILLER_0_0_27
*66 FILLER_0_0_277
*67 FILLER_0_0_281
*68 FILLER_0_0_29
*69 FILLER_0_0_293
*70 FILLER_0_0_3
*71 FILLER_0_0_305
*72 FILLER_0_0_309
*73 FILLER_0_0_321
*74 FILLER_0_0_333
*75 FILLER_0_0_337
*76 FILLER_0_0_349
*77 FILLER_0_0_41
*78 FILLER_0_0_53
*79 FILLER_0_0_57
*80 FILLER_0_0_69
*81 FILLER_0_0_81
*82 FILLER_0_0_85
*83 FILLER_0_0_97
*84 FILLER_0_10_109
*85 FILLER_0_10_121
*86 FILLER_0_10_133
*87 FILLER_0_10_139
*88 FILLER_0_10_141
*89 FILLER_0_10_15
*90 FILLER_0_10_153
*91 FILLER_0_10_165
*92 FILLER_0_10_177
*93 FILLER_0_10_189
*94 FILLER_0_10_195
*95 FILLER_0_10_197
*96 FILLER_0_10_209
*97 FILLER_0_10_221
*98 FILLER_0_10_233
*99 FILLER_0_10_245
*100 FILLER_0_10_251
*101 FILLER_0_10_253
*102 FILLER_0_10_265
*103 FILLER_0_10_27
*104 FILLER_0_10_277
*105 FILLER_0_10_289
*106 FILLER_0_10_29
*107 FILLER_0_10_3
*108 FILLER_0_10_301
*109 FILLER_0_10_307
*110 FILLER_0_10_309
*111 FILLER_0_10_321
*112 FILLER_0_10_333
*113 FILLER_0_10_345
*114 FILLER_0_10_41
*115 FILLER_0_10_53
*116 FILLER_0_10_65
*117 FILLER_0_10_77
*118 FILLER_0_10_83
*119 FILLER_0_10_85
*120 FILLER_0_10_97
*121 FILLER_0_11_105
*122 FILLER_0_11_111
*123 FILLER_0_11_113
*124 FILLER_0_11_125
*125 FILLER_0_11_137
*126 FILLER_0_11_149
*127 FILLER_0_11_15
*128 FILLER_0_11_161
*129 FILLER_0_11_167
*130 FILLER_0_11_169
*131 FILLER_0_11_181
*132 FILLER_0_11_193
*133 FILLER_0_11_205
*134 FILLER_0_11_217
*135 FILLER_0_11_223
*136 FILLER_0_11_225
*137 FILLER_0_11_237
*138 FILLER_0_11_249
*139 FILLER_0_11_261
*140 FILLER_0_11_27
*141 FILLER_0_11_273
*142 FILLER_0_11_279
*143 FILLER_0_11_281
*144 FILLER_0_11_293
*145 FILLER_0_11_3
*146 FILLER_0_11_305
*147 FILLER_0_11_317
*148 FILLER_0_11_329
*149 FILLER_0_11_335
*150 FILLER_0_11_337
*151 FILLER_0_11_349
*152 FILLER_0_11_39
*153 FILLER_0_11_51
*154 FILLER_0_11_55
*155 FILLER_0_11_57
*156 FILLER_0_11_69
*157 FILLER_0_11_81
*158 FILLER_0_11_93
*159 FILLER_0_12_109
*160 FILLER_0_12_121
*161 FILLER_0_12_133
*162 FILLER_0_12_139
*163 FILLER_0_12_141
*164 FILLER_0_12_15
*165 FILLER_0_12_153
*166 FILLER_0_12_165
*167 FILLER_0_12_177
*168 FILLER_0_12_189
*169 FILLER_0_12_195
*170 FILLER_0_12_197
*171 FILLER_0_12_209
*172 FILLER_0_12_221
*173 FILLER_0_12_233
*174 FILLER_0_12_245
*175 FILLER_0_12_251
*176 FILLER_0_12_253
*177 FILLER_0_12_265
*178 FILLER_0_12_27
*179 FILLER_0_12_277
*180 FILLER_0_12_289
*181 FILLER_0_12_29
*182 FILLER_0_12_3
*183 FILLER_0_12_301
*184 FILLER_0_12_307
*185 FILLER_0_12_309
*186 FILLER_0_12_321
*187 FILLER_0_12_333
*188 FILLER_0_12_345
*189 FILLER_0_12_41
*190 FILLER_0_12_53
*191 FILLER_0_12_65
*192 FILLER_0_12_77
*193 FILLER_0_12_83
*194 FILLER_0_12_85
*195 FILLER_0_12_97
*196 FILLER_0_13_105
*197 FILLER_0_13_111
*198 FILLER_0_13_113
*199 FILLER_0_13_125
*200 FILLER_0_13_137
*201 FILLER_0_13_149
*202 FILLER_0_13_15
*203 FILLER_0_13_161
*204 FILLER_0_13_167
*205 FILLER_0_13_169
*206 FILLER_0_13_181
*207 FILLER_0_13_193
*208 FILLER_0_13_205
*209 FILLER_0_13_217
*210 FILLER_0_13_223
*211 FILLER_0_13_225
*212 FILLER_0_13_237
*213 FILLER_0_13_249
*214 FILLER_0_13_261
*215 FILLER_0_13_27
*216 FILLER_0_13_273
*217 FILLER_0_13_279
*218 FILLER_0_13_281
*219 FILLER_0_13_293
*220 FILLER_0_13_3
*221 FILLER_0_13_305
*222 FILLER_0_13_317
*223 FILLER_0_13_329
*224 FILLER_0_13_335
*225 FILLER_0_13_337
*226 FILLER_0_13_349
*227 FILLER_0_13_39
*228 FILLER_0_13_51
*229 FILLER_0_13_55
*230 FILLER_0_13_57
*231 FILLER_0_13_69
*232 FILLER_0_13_81
*233 FILLER_0_13_93
*234 FILLER_0_14_109
*235 FILLER_0_14_121
*236 FILLER_0_14_133
*237 FILLER_0_14_139
*238 FILLER_0_14_141
*239 FILLER_0_14_15
*240 FILLER_0_14_153
*241 FILLER_0_14_165
*242 FILLER_0_14_177
*243 FILLER_0_14_189
*244 FILLER_0_14_195
*245 FILLER_0_14_197
*246 FILLER_0_14_209
*247 FILLER_0_14_221
*248 FILLER_0_14_233
*249 FILLER_0_14_245
*250 FILLER_0_14_251
*251 FILLER_0_14_253
*252 FILLER_0_14_265
*253 FILLER_0_14_27
*254 FILLER_0_14_277
*255 FILLER_0_14_289
*256 FILLER_0_14_29
*257 FILLER_0_14_3
*258 FILLER_0_14_301
*259 FILLER_0_14_307
*260 FILLER_0_14_309
*261 FILLER_0_14_321
*262 FILLER_0_14_333
*263 FILLER_0_14_345
*264 FILLER_0_14_41
*265 FILLER_0_14_53
*266 FILLER_0_14_65
*267 FILLER_0_14_77
*268 FILLER_0_14_83
*269 FILLER_0_14_85
*270 FILLER_0_14_97
*271 FILLER_0_15_105
*272 FILLER_0_15_111
*273 FILLER_0_15_113
*274 FILLER_0_15_125
*275 FILLER_0_15_137
*276 FILLER_0_15_149
*277 FILLER_0_15_15
*278 FILLER_0_15_161
*279 FILLER_0_15_167
*280 FILLER_0_15_169
*281 FILLER_0_15_181
*282 FILLER_0_15_193
*283 FILLER_0_15_205
*284 FILLER_0_15_217
*285 FILLER_0_15_223
*286 FILLER_0_15_225
*287 FILLER_0_15_237
*288 FILLER_0_15_249
*289 FILLER_0_15_261
*290 FILLER_0_15_27
*291 FILLER_0_15_273
*292 FILLER_0_15_279
*293 FILLER_0_15_281
*294 FILLER_0_15_293
*295 FILLER_0_15_3
*296 FILLER_0_15_305
*297 FILLER_0_15_317
*298 FILLER_0_15_329
*299 FILLER_0_15_335
*300 FILLER_0_15_337
*301 FILLER_0_15_349
*302 FILLER_0_15_39
*303 FILLER_0_15_51
*304 FILLER_0_15_55
*305 FILLER_0_15_57
*306 FILLER_0_15_69
*307 FILLER_0_15_81
*308 FILLER_0_15_93
*309 FILLER_0_16_109
*310 FILLER_0_16_121
*311 FILLER_0_16_133
*312 FILLER_0_16_139
*313 FILLER_0_16_141
*314 FILLER_0_16_15
*315 FILLER_0_16_153
*316 FILLER_0_16_165
*317 FILLER_0_16_177
*318 FILLER_0_16_189
*319 FILLER_0_16_195
*320 FILLER_0_16_197
*321 FILLER_0_16_209
*322 FILLER_0_16_221
*323 FILLER_0_16_233
*324 FILLER_0_16_245
*325 FILLER_0_16_251
*326 FILLER_0_16_253
*327 FILLER_0_16_265
*328 FILLER_0_16_27
*329 FILLER_0_16_277
*330 FILLER_0_16_289
*331 FILLER_0_16_29
*332 FILLER_0_16_3
*333 FILLER_0_16_301
*334 FILLER_0_16_307
*335 FILLER_0_16_309
*336 FILLER_0_16_321
*337 FILLER_0_16_333
*338 FILLER_0_16_345
*339 FILLER_0_16_41
*340 FILLER_0_16_53
*341 FILLER_0_16_65
*342 FILLER_0_16_77
*343 FILLER_0_16_83
*344 FILLER_0_16_85
*345 FILLER_0_16_97
*346 FILLER_0_17_105
*347 FILLER_0_17_111
*348 FILLER_0_17_113
*349 FILLER_0_17_125
*350 FILLER_0_17_137
*351 FILLER_0_17_149
*352 FILLER_0_17_15
*353 FILLER_0_17_161
*354 FILLER_0_17_167
*355 FILLER_0_17_169
*356 FILLER_0_17_181
*357 FILLER_0_17_193
*358 FILLER_0_17_205
*359 FILLER_0_17_217
*360 FILLER_0_17_223
*361 FILLER_0_17_225
*362 FILLER_0_17_237
*363 FILLER_0_17_249
*364 FILLER_0_17_261
*365 FILLER_0_17_27
*366 FILLER_0_17_273
*367 FILLER_0_17_279
*368 FILLER_0_17_281
*369 FILLER_0_17_293
*370 FILLER_0_17_3
*371 FILLER_0_17_305
*372 FILLER_0_17_317
*373 FILLER_0_17_329
*374 FILLER_0_17_335
*375 FILLER_0_17_337
*376 FILLER_0_17_349
*377 FILLER_0_17_39
*378 FILLER_0_17_51
*379 FILLER_0_17_55
*380 FILLER_0_17_57
*381 FILLER_0_17_69
*382 FILLER_0_17_81
*383 FILLER_0_17_93
*384 FILLER_0_18_109
*385 FILLER_0_18_121
*386 FILLER_0_18_133
*387 FILLER_0_18_139
*388 FILLER_0_18_141
*389 FILLER_0_18_15
*390 FILLER_0_18_153
*391 FILLER_0_18_165
*392 FILLER_0_18_177
*393 FILLER_0_18_189
*394 FILLER_0_18_195
*395 FILLER_0_18_197
*396 FILLER_0_18_209
*397 FILLER_0_18_221
*398 FILLER_0_18_233
*399 FILLER_0_18_245
*400 FILLER_0_18_251
*401 FILLER_0_18_253
*402 FILLER_0_18_265
*403 FILLER_0_18_27
*404 FILLER_0_18_277
*405 FILLER_0_18_289
*406 FILLER_0_18_29
*407 FILLER_0_18_3
*408 FILLER_0_18_301
*409 FILLER_0_18_307
*410 FILLER_0_18_309
*411 FILLER_0_18_321
*412 FILLER_0_18_333
*413 FILLER_0_18_345
*414 FILLER_0_18_41
*415 FILLER_0_18_53
*416 FILLER_0_18_65
*417 FILLER_0_18_77
*418 FILLER_0_18_83
*419 FILLER_0_18_85
*420 FILLER_0_18_97
*421 FILLER_0_19_105
*422 FILLER_0_19_111
*423 FILLER_0_19_113
*424 FILLER_0_19_125
*425 FILLER_0_19_137
*426 FILLER_0_19_149
*427 FILLER_0_19_15
*428 FILLER_0_19_161
*429 FILLER_0_19_167
*430 FILLER_0_19_169
*431 FILLER_0_19_181
*432 FILLER_0_19_193
*433 FILLER_0_19_205
*434 FILLER_0_19_217
*435 FILLER_0_19_223
*436 FILLER_0_19_225
*437 FILLER_0_19_237
*438 FILLER_0_19_249
*439 FILLER_0_19_261
*440 FILLER_0_19_27
*441 FILLER_0_19_273
*442 FILLER_0_19_279
*443 FILLER_0_19_281
*444 FILLER_0_19_293
*445 FILLER_0_19_3
*446 FILLER_0_19_305
*447 FILLER_0_19_317
*448 FILLER_0_19_329
*449 FILLER_0_19_335
*450 FILLER_0_19_337
*451 FILLER_0_19_349
*452 FILLER_0_19_39
*453 FILLER_0_19_51
*454 FILLER_0_19_55
*455 FILLER_0_19_57
*456 FILLER_0_19_69
*457 FILLER_0_19_81
*458 FILLER_0_19_93
*459 FILLER_0_1_105
*460 FILLER_0_1_111
*461 FILLER_0_1_113
*462 FILLER_0_1_125
*463 FILLER_0_1_137
*464 FILLER_0_1_149
*465 FILLER_0_1_15
*466 FILLER_0_1_161
*467 FILLER_0_1_167
*468 FILLER_0_1_169
*469 FILLER_0_1_181
*470 FILLER_0_1_193
*471 FILLER_0_1_205
*472 FILLER_0_1_217
*473 FILLER_0_1_223
*474 FILLER_0_1_225
*475 FILLER_0_1_237
*476 FILLER_0_1_249
*477 FILLER_0_1_261
*478 FILLER_0_1_27
*479 FILLER_0_1_273
*480 FILLER_0_1_279
*481 FILLER_0_1_281
*482 FILLER_0_1_293
*483 FILLER_0_1_3
*484 FILLER_0_1_305
*485 FILLER_0_1_317
*486 FILLER_0_1_329
*487 FILLER_0_1_335
*488 FILLER_0_1_337
*489 FILLER_0_1_349
*490 FILLER_0_1_39
*491 FILLER_0_1_51
*492 FILLER_0_1_55
*493 FILLER_0_1_57
*494 FILLER_0_1_69
*495 FILLER_0_1_81
*496 FILLER_0_1_93
*497 FILLER_0_20_109
*498 FILLER_0_20_121
*499 FILLER_0_20_133
*500 FILLER_0_20_139
*501 FILLER_0_20_141
*502 FILLER_0_20_15
*503 FILLER_0_20_153
*504 FILLER_0_20_165
*505 FILLER_0_20_177
*506 FILLER_0_20_189
*507 FILLER_0_20_195
*508 FILLER_0_20_197
*509 FILLER_0_20_209
*510 FILLER_0_20_221
*511 FILLER_0_20_233
*512 FILLER_0_20_245
*513 FILLER_0_20_251
*514 FILLER_0_20_253
*515 FILLER_0_20_265
*516 FILLER_0_20_27
*517 FILLER_0_20_277
*518 FILLER_0_20_289
*519 FILLER_0_20_29
*520 FILLER_0_20_3
*521 FILLER_0_20_301
*522 FILLER_0_20_307
*523 FILLER_0_20_309
*524 FILLER_0_20_321
*525 FILLER_0_20_333
*526 FILLER_0_20_345
*527 FILLER_0_20_41
*528 FILLER_0_20_53
*529 FILLER_0_20_65
*530 FILLER_0_20_77
*531 FILLER_0_20_83
*532 FILLER_0_20_85
*533 FILLER_0_20_97
*534 FILLER_0_21_105
*535 FILLER_0_21_111
*536 FILLER_0_21_113
*537 FILLER_0_21_125
*538 FILLER_0_21_137
*539 FILLER_0_21_149
*540 FILLER_0_21_15
*541 FILLER_0_21_161
*542 FILLER_0_21_167
*543 FILLER_0_21_169
*544 FILLER_0_21_181
*545 FILLER_0_21_193
*546 FILLER_0_21_205
*547 FILLER_0_21_217
*548 FILLER_0_21_223
*549 FILLER_0_21_225
*550 FILLER_0_21_237
*551 FILLER_0_21_249
*552 FILLER_0_21_261
*553 FILLER_0_21_27
*554 FILLER_0_21_273
*555 FILLER_0_21_279
*556 FILLER_0_21_281
*557 FILLER_0_21_293
*558 FILLER_0_21_3
*559 FILLER_0_21_305
*560 FILLER_0_21_317
*561 FILLER_0_21_329
*562 FILLER_0_21_335
*563 FILLER_0_21_337
*564 FILLER_0_21_349
*565 FILLER_0_21_39
*566 FILLER_0_21_51
*567 FILLER_0_21_55
*568 FILLER_0_21_57
*569 FILLER_0_21_69
*570 FILLER_0_21_81
*571 FILLER_0_21_93
*572 FILLER_0_22_109
*573 FILLER_0_22_121
*574 FILLER_0_22_133
*575 FILLER_0_22_139
*576 FILLER_0_22_141
*577 FILLER_0_22_15
*578 FILLER_0_22_153
*579 FILLER_0_22_165
*580 FILLER_0_22_177
*581 FILLER_0_22_189
*582 FILLER_0_22_195
*583 FILLER_0_22_197
*584 FILLER_0_22_209
*585 FILLER_0_22_221
*586 FILLER_0_22_233
*587 FILLER_0_22_245
*588 FILLER_0_22_251
*589 FILLER_0_22_253
*590 FILLER_0_22_265
*591 FILLER_0_22_27
*592 FILLER_0_22_277
*593 FILLER_0_22_289
*594 FILLER_0_22_29
*595 FILLER_0_22_3
*596 FILLER_0_22_301
*597 FILLER_0_22_307
*598 FILLER_0_22_309
*599 FILLER_0_22_321
*600 FILLER_0_22_333
*601 FILLER_0_22_345
*602 FILLER_0_22_41
*603 FILLER_0_22_53
*604 FILLER_0_22_65
*605 FILLER_0_22_77
*606 FILLER_0_22_83
*607 FILLER_0_22_85
*608 FILLER_0_22_97
*609 FILLER_0_23_105
*610 FILLER_0_23_111
*611 FILLER_0_23_113
*612 FILLER_0_23_125
*613 FILLER_0_23_137
*614 FILLER_0_23_149
*615 FILLER_0_23_15
*616 FILLER_0_23_161
*617 FILLER_0_23_167
*618 FILLER_0_23_169
*619 FILLER_0_23_181
*620 FILLER_0_23_193
*621 FILLER_0_23_205
*622 FILLER_0_23_217
*623 FILLER_0_23_223
*624 FILLER_0_23_225
*625 FILLER_0_23_237
*626 FILLER_0_23_249
*627 FILLER_0_23_261
*628 FILLER_0_23_27
*629 FILLER_0_23_273
*630 FILLER_0_23_279
*631 FILLER_0_23_281
*632 FILLER_0_23_293
*633 FILLER_0_23_3
*634 FILLER_0_23_305
*635 FILLER_0_23_317
*636 FILLER_0_23_329
*637 FILLER_0_23_335
*638 FILLER_0_23_337
*639 FILLER_0_23_349
*640 FILLER_0_23_39
*641 FILLER_0_23_51
*642 FILLER_0_23_55
*643 FILLER_0_23_57
*644 FILLER_0_23_69
*645 FILLER_0_23_81
*646 FILLER_0_23_93
*647 FILLER_0_24_109
*648 FILLER_0_24_121
*649 FILLER_0_24_133
*650 FILLER_0_24_139
*651 FILLER_0_24_141
*652 FILLER_0_24_15
*653 FILLER_0_24_153
*654 FILLER_0_24_165
*655 FILLER_0_24_177
*656 FILLER_0_24_189
*657 FILLER_0_24_195
*658 FILLER_0_24_197
*659 FILLER_0_24_209
*660 FILLER_0_24_221
*661 FILLER_0_24_233
*662 FILLER_0_24_245
*663 FILLER_0_24_251
*664 FILLER_0_24_253
*665 FILLER_0_24_265
*666 FILLER_0_24_27
*667 FILLER_0_24_277
*668 FILLER_0_24_289
*669 FILLER_0_24_29
*670 FILLER_0_24_3
*671 FILLER_0_24_301
*672 FILLER_0_24_307
*673 FILLER_0_24_309
*674 FILLER_0_24_321
*675 FILLER_0_24_333
*676 FILLER_0_24_345
*677 FILLER_0_24_41
*678 FILLER_0_24_53
*679 FILLER_0_24_65
*680 FILLER_0_24_77
*681 FILLER_0_24_83
*682 FILLER_0_24_85
*683 FILLER_0_24_97
*684 FILLER_0_25_105
*685 FILLER_0_25_111
*686 FILLER_0_25_113
*687 FILLER_0_25_125
*688 FILLER_0_25_137
*689 FILLER_0_25_149
*690 FILLER_0_25_15
*691 FILLER_0_25_161
*692 FILLER_0_25_167
*693 FILLER_0_25_169
*694 FILLER_0_25_181
*695 FILLER_0_25_193
*696 FILLER_0_25_205
*697 FILLER_0_25_217
*698 FILLER_0_25_223
*699 FILLER_0_25_225
*700 FILLER_0_25_237
*701 FILLER_0_25_249
*702 FILLER_0_25_261
*703 FILLER_0_25_27
*704 FILLER_0_25_273
*705 FILLER_0_25_279
*706 FILLER_0_25_281
*707 FILLER_0_25_293
*708 FILLER_0_25_3
*709 FILLER_0_25_305
*710 FILLER_0_25_317
*711 FILLER_0_25_329
*712 FILLER_0_25_335
*713 FILLER_0_25_337
*714 FILLER_0_25_349
*715 FILLER_0_25_39
*716 FILLER_0_25_51
*717 FILLER_0_25_55
*718 FILLER_0_25_57
*719 FILLER_0_25_69
*720 FILLER_0_25_81
*721 FILLER_0_25_93
*722 FILLER_0_26_109
*723 FILLER_0_26_121
*724 FILLER_0_26_133
*725 FILLER_0_26_139
*726 FILLER_0_26_141
*727 FILLER_0_26_15
*728 FILLER_0_26_153
*729 FILLER_0_26_165
*730 FILLER_0_26_177
*731 FILLER_0_26_189
*732 FILLER_0_26_195
*733 FILLER_0_26_197
*734 FILLER_0_26_209
*735 FILLER_0_26_221
*736 FILLER_0_26_233
*737 FILLER_0_26_245
*738 FILLER_0_26_251
*739 FILLER_0_26_253
*740 FILLER_0_26_265
*741 FILLER_0_26_27
*742 FILLER_0_26_277
*743 FILLER_0_26_289
*744 FILLER_0_26_29
*745 FILLER_0_26_3
*746 FILLER_0_26_301
*747 FILLER_0_26_307
*748 FILLER_0_26_309
*749 FILLER_0_26_321
*750 FILLER_0_26_333
*751 FILLER_0_26_345
*752 FILLER_0_26_41
*753 FILLER_0_26_53
*754 FILLER_0_26_65
*755 FILLER_0_26_77
*756 FILLER_0_26_83
*757 FILLER_0_26_85
*758 FILLER_0_26_97
*759 FILLER_0_27_105
*760 FILLER_0_27_111
*761 FILLER_0_27_113
*762 FILLER_0_27_125
*763 FILLER_0_27_137
*764 FILLER_0_27_149
*765 FILLER_0_27_15
*766 FILLER_0_27_161
*767 FILLER_0_27_167
*768 FILLER_0_27_169
*769 FILLER_0_27_181
*770 FILLER_0_27_193
*771 FILLER_0_27_205
*772 FILLER_0_27_217
*773 FILLER_0_27_223
*774 FILLER_0_27_225
*775 FILLER_0_27_237
*776 FILLER_0_27_249
*777 FILLER_0_27_261
*778 FILLER_0_27_27
*779 FILLER_0_27_273
*780 FILLER_0_27_279
*781 FILLER_0_27_281
*782 FILLER_0_27_293
*783 FILLER_0_27_3
*784 FILLER_0_27_305
*785 FILLER_0_27_317
*786 FILLER_0_27_329
*787 FILLER_0_27_335
*788 FILLER_0_27_337
*789 FILLER_0_27_349
*790 FILLER_0_27_39
*791 FILLER_0_27_51
*792 FILLER_0_27_55
*793 FILLER_0_27_57
*794 FILLER_0_27_69
*795 FILLER_0_27_81
*796 FILLER_0_27_93
*797 FILLER_0_28_109
*798 FILLER_0_28_121
*799 FILLER_0_28_133
*800 FILLER_0_28_139
*801 FILLER_0_28_141
*802 FILLER_0_28_15
*803 FILLER_0_28_153
*804 FILLER_0_28_165
*805 FILLER_0_28_177
*806 FILLER_0_28_189
*807 FILLER_0_28_195
*808 FILLER_0_28_197
*809 FILLER_0_28_209
*810 FILLER_0_28_221
*811 FILLER_0_28_233
*812 FILLER_0_28_245
*813 FILLER_0_28_251
*814 FILLER_0_28_253
*815 FILLER_0_28_265
*816 FILLER_0_28_27
*817 FILLER_0_28_277
*818 FILLER_0_28_289
*819 FILLER_0_28_29
*820 FILLER_0_28_3
*821 FILLER_0_28_301
*822 FILLER_0_28_307
*823 FILLER_0_28_309
*824 FILLER_0_28_321
*825 FILLER_0_28_333
*826 FILLER_0_28_345
*827 FILLER_0_28_41
*828 FILLER_0_28_53
*829 FILLER_0_28_65
*830 FILLER_0_28_77
*831 FILLER_0_28_83
*832 FILLER_0_28_85
*833 FILLER_0_28_97
*834 FILLER_0_29_105
*835 FILLER_0_29_111
*836 FILLER_0_29_113
*837 FILLER_0_29_125
*838 FILLER_0_29_137
*839 FILLER_0_29_149
*840 FILLER_0_29_15
*841 FILLER_0_29_161
*842 FILLER_0_29_167
*843 FILLER_0_29_169
*844 FILLER_0_29_181
*845 FILLER_0_29_193
*846 FILLER_0_29_205
*847 FILLER_0_29_217
*848 FILLER_0_29_223
*849 FILLER_0_29_225
*850 FILLER_0_29_237
*851 FILLER_0_29_249
*852 FILLER_0_29_261
*853 FILLER_0_29_27
*854 FILLER_0_29_273
*855 FILLER_0_29_279
*856 FILLER_0_29_281
*857 FILLER_0_29_293
*858 FILLER_0_29_3
*859 FILLER_0_29_305
*860 FILLER_0_29_317
*861 FILLER_0_29_329
*862 FILLER_0_29_335
*863 FILLER_0_29_337
*864 FILLER_0_29_349
*865 FILLER_0_29_39
*866 FILLER_0_29_51
*867 FILLER_0_29_55
*868 FILLER_0_29_57
*869 FILLER_0_29_69
*870 FILLER_0_29_81
*871 FILLER_0_29_93
*872 FILLER_0_2_109
*873 FILLER_0_2_121
*874 FILLER_0_2_133
*875 FILLER_0_2_139
*876 FILLER_0_2_141
*877 FILLER_0_2_15
*878 FILLER_0_2_153
*879 FILLER_0_2_165
*880 FILLER_0_2_177
*881 FILLER_0_2_189
*882 FILLER_0_2_195
*883 FILLER_0_2_197
*884 FILLER_0_2_209
*885 FILLER_0_2_221
*886 FILLER_0_2_233
*887 FILLER_0_2_245
*888 FILLER_0_2_251
*889 FILLER_0_2_253
*890 FILLER_0_2_265
*891 FILLER_0_2_27
*892 FILLER_0_2_277
*893 FILLER_0_2_289
*894 FILLER_0_2_29
*895 FILLER_0_2_3
*896 FILLER_0_2_301
*897 FILLER_0_2_307
*898 FILLER_0_2_309
*899 FILLER_0_2_321
*900 FILLER_0_2_333
*901 FILLER_0_2_345
*902 FILLER_0_2_41
*903 FILLER_0_2_53
*904 FILLER_0_2_65
*905 FILLER_0_2_77
*906 FILLER_0_2_83
*907 FILLER_0_2_85
*908 FILLER_0_2_97
*909 FILLER_0_30_109
*910 FILLER_0_30_121
*911 FILLER_0_30_133
*912 FILLER_0_30_139
*913 FILLER_0_30_141
*914 FILLER_0_30_15
*915 FILLER_0_30_153
*916 FILLER_0_30_165
*917 FILLER_0_30_177
*918 FILLER_0_30_189
*919 FILLER_0_30_195
*920 FILLER_0_30_197
*921 FILLER_0_30_209
*922 FILLER_0_30_221
*923 FILLER_0_30_233
*924 FILLER_0_30_245
*925 FILLER_0_30_251
*926 FILLER_0_30_253
*927 FILLER_0_30_265
*928 FILLER_0_30_27
*929 FILLER_0_30_277
*930 FILLER_0_30_289
*931 FILLER_0_30_29
*932 FILLER_0_30_3
*933 FILLER_0_30_301
*934 FILLER_0_30_307
*935 FILLER_0_30_309
*936 FILLER_0_30_321
*937 FILLER_0_30_333
*938 FILLER_0_30_345
*939 FILLER_0_30_41
*940 FILLER_0_30_53
*941 FILLER_0_30_65
*942 FILLER_0_30_77
*943 FILLER_0_30_83
*944 FILLER_0_30_85
*945 FILLER_0_30_97
*946 FILLER_0_31_105
*947 FILLER_0_31_111
*948 FILLER_0_31_113
*949 FILLER_0_31_125
*950 FILLER_0_31_137
*951 FILLER_0_31_149
*952 FILLER_0_31_15
*953 FILLER_0_31_161
*954 FILLER_0_31_167
*955 FILLER_0_31_169
*956 FILLER_0_31_181
*957 FILLER_0_31_193
*958 FILLER_0_31_205
*959 FILLER_0_31_217
*960 FILLER_0_31_223
*961 FILLER_0_31_225
*962 FILLER_0_31_237
*963 FILLER_0_31_249
*964 FILLER_0_31_261
*965 FILLER_0_31_27
*966 FILLER_0_31_273
*967 FILLER_0_31_279
*968 FILLER_0_31_281
*969 FILLER_0_31_293
*970 FILLER_0_31_3
*971 FILLER_0_31_305
*972 FILLER_0_31_317
*973 FILLER_0_31_329
*974 FILLER_0_31_335
*975 FILLER_0_31_337
*976 FILLER_0_31_349
*977 FILLER_0_31_39
*978 FILLER_0_31_51
*979 FILLER_0_31_55
*980 FILLER_0_31_57
*981 FILLER_0_31_69
*982 FILLER_0_31_81
*983 FILLER_0_31_93
*984 FILLER_0_32_109
*985 FILLER_0_32_121
*986 FILLER_0_32_133
*987 FILLER_0_32_139
*988 FILLER_0_32_141
*989 FILLER_0_32_15
*990 FILLER_0_32_153
*991 FILLER_0_32_165
*992 FILLER_0_32_177
*993 FILLER_0_32_189
*994 FILLER_0_32_195
*995 FILLER_0_32_197
*996 FILLER_0_32_209
*997 FILLER_0_32_221
*998 FILLER_0_32_233
*999 FILLER_0_32_245
*1000 FILLER_0_32_251
*1001 FILLER_0_32_253
*1002 FILLER_0_32_265
*1003 FILLER_0_32_27
*1004 FILLER_0_32_277
*1005 FILLER_0_32_289
*1006 FILLER_0_32_29
*1007 FILLER_0_32_3
*1008 FILLER_0_32_301
*1009 FILLER_0_32_307
*1010 FILLER_0_32_309
*1011 FILLER_0_32_321
*1012 FILLER_0_32_333
*1013 FILLER_0_32_345
*1014 FILLER_0_32_41
*1015 FILLER_0_32_53
*1016 FILLER_0_32_65
*1017 FILLER_0_32_77
*1018 FILLER_0_32_83
*1019 FILLER_0_32_85
*1020 FILLER_0_32_97
*1021 FILLER_0_33_105
*1022 FILLER_0_33_111
*1023 FILLER_0_33_113
*1024 FILLER_0_33_125
*1025 FILLER_0_33_137
*1026 FILLER_0_33_149
*1027 FILLER_0_33_15
*1028 FILLER_0_33_161
*1029 FILLER_0_33_167
*1030 FILLER_0_33_169
*1031 FILLER_0_33_181
*1032 FILLER_0_33_193
*1033 FILLER_0_33_205
*1034 FILLER_0_33_217
*1035 FILLER_0_33_223
*1036 FILLER_0_33_225
*1037 FILLER_0_33_237
*1038 FILLER_0_33_249
*1039 FILLER_0_33_261
*1040 FILLER_0_33_27
*1041 FILLER_0_33_273
*1042 FILLER_0_33_279
*1043 FILLER_0_33_281
*1044 FILLER_0_33_293
*1045 FILLER_0_33_3
*1046 FILLER_0_33_305
*1047 FILLER_0_33_317
*1048 FILLER_0_33_329
*1049 FILLER_0_33_335
*1050 FILLER_0_33_337
*1051 FILLER_0_33_349
*1052 FILLER_0_33_39
*1053 FILLER_0_33_51
*1054 FILLER_0_33_55
*1055 FILLER_0_33_57
*1056 FILLER_0_33_69
*1057 FILLER_0_33_81
*1058 FILLER_0_33_93
*1059 FILLER_0_34_109
*1060 FILLER_0_34_121
*1061 FILLER_0_34_133
*1062 FILLER_0_34_139
*1063 FILLER_0_34_141
*1064 FILLER_0_34_15
*1065 FILLER_0_34_153
*1066 FILLER_0_34_165
*1067 FILLER_0_34_177
*1068 FILLER_0_34_189
*1069 FILLER_0_34_195
*1070 FILLER_0_34_197
*1071 FILLER_0_34_209
*1072 FILLER_0_34_221
*1073 FILLER_0_34_233
*1074 FILLER_0_34_245
*1075 FILLER_0_34_251
*1076 FILLER_0_34_253
*1077 FILLER_0_34_265
*1078 FILLER_0_34_27
*1079 FILLER_0_34_277
*1080 FILLER_0_34_289
*1081 FILLER_0_34_29
*1082 FILLER_0_34_3
*1083 FILLER_0_34_301
*1084 FILLER_0_34_307
*1085 FILLER_0_34_309
*1086 FILLER_0_34_321
*1087 FILLER_0_34_333
*1088 FILLER_0_34_345
*1089 FILLER_0_34_41
*1090 FILLER_0_34_53
*1091 FILLER_0_34_65
*1092 FILLER_0_34_77
*1093 FILLER_0_34_83
*1094 FILLER_0_34_85
*1095 FILLER_0_34_97
*1096 FILLER_0_35_105
*1097 FILLER_0_35_111
*1098 FILLER_0_35_113
*1099 FILLER_0_35_125
*1100 FILLER_0_35_137
*1101 FILLER_0_35_149
*1102 FILLER_0_35_15
*1103 FILLER_0_35_161
*1104 FILLER_0_35_167
*1105 FILLER_0_35_169
*1106 FILLER_0_35_181
*1107 FILLER_0_35_193
*1108 FILLER_0_35_205
*1109 FILLER_0_35_217
*1110 FILLER_0_35_223
*1111 FILLER_0_35_225
*1112 FILLER_0_35_237
*1113 FILLER_0_35_249
*1114 FILLER_0_35_261
*1115 FILLER_0_35_27
*1116 FILLER_0_35_273
*1117 FILLER_0_35_279
*1118 FILLER_0_35_281
*1119 FILLER_0_35_293
*1120 FILLER_0_35_3
*1121 FILLER_0_35_305
*1122 FILLER_0_35_317
*1123 FILLER_0_35_329
*1124 FILLER_0_35_335
*1125 FILLER_0_35_337
*1126 FILLER_0_35_349
*1127 FILLER_0_35_39
*1128 FILLER_0_35_51
*1129 FILLER_0_35_55
*1130 FILLER_0_35_57
*1131 FILLER_0_35_69
*1132 FILLER_0_35_81
*1133 FILLER_0_35_93
*1134 FILLER_0_36_109
*1135 FILLER_0_36_121
*1136 FILLER_0_36_133
*1137 FILLER_0_36_139
*1138 FILLER_0_36_141
*1139 FILLER_0_36_15
*1140 FILLER_0_36_153
*1141 FILLER_0_36_165
*1142 FILLER_0_36_177
*1143 FILLER_0_36_189
*1144 FILLER_0_36_195
*1145 FILLER_0_36_197
*1146 FILLER_0_36_209
*1147 FILLER_0_36_221
*1148 FILLER_0_36_233
*1149 FILLER_0_36_245
*1150 FILLER_0_36_251
*1151 FILLER_0_36_253
*1152 FILLER_0_36_265
*1153 FILLER_0_36_27
*1154 FILLER_0_36_277
*1155 FILLER_0_36_289
*1156 FILLER_0_36_29
*1157 FILLER_0_36_3
*1158 FILLER_0_36_301
*1159 FILLER_0_36_307
*1160 FILLER_0_36_309
*1161 FILLER_0_36_321
*1162 FILLER_0_36_333
*1163 FILLER_0_36_345
*1164 FILLER_0_36_41
*1165 FILLER_0_36_53
*1166 FILLER_0_36_65
*1167 FILLER_0_36_77
*1168 FILLER_0_36_83
*1169 FILLER_0_36_85
*1170 FILLER_0_36_97
*1171 FILLER_0_37_105
*1172 FILLER_0_37_111
*1173 FILLER_0_37_113
*1174 FILLER_0_37_125
*1175 FILLER_0_37_137
*1176 FILLER_0_37_149
*1177 FILLER_0_37_15
*1178 FILLER_0_37_161
*1179 FILLER_0_37_167
*1180 FILLER_0_37_169
*1181 FILLER_0_37_181
*1182 FILLER_0_37_193
*1183 FILLER_0_37_205
*1184 FILLER_0_37_217
*1185 FILLER_0_37_223
*1186 FILLER_0_37_225
*1187 FILLER_0_37_237
*1188 FILLER_0_37_249
*1189 FILLER_0_37_261
*1190 FILLER_0_37_27
*1191 FILLER_0_37_273
*1192 FILLER_0_37_279
*1193 FILLER_0_37_281
*1194 FILLER_0_37_293
*1195 FILLER_0_37_3
*1196 FILLER_0_37_305
*1197 FILLER_0_37_317
*1198 FILLER_0_37_329
*1199 FILLER_0_37_335
*1200 FILLER_0_37_337
*1201 FILLER_0_37_349
*1202 FILLER_0_37_39
*1203 FILLER_0_37_51
*1204 FILLER_0_37_55
*1205 FILLER_0_37_57
*1206 FILLER_0_37_69
*1207 FILLER_0_37_81
*1208 FILLER_0_37_93
*1209 FILLER_0_38_104
*1210 FILLER_0_38_110
*1211 FILLER_0_38_116
*1212 FILLER_0_38_122
*1213 FILLER_0_38_128
*1214 FILLER_0_38_134
*1215 FILLER_0_38_141
*1216 FILLER_0_38_146
*1217 FILLER_0_38_15
*1218 FILLER_0_38_152
*1219 FILLER_0_38_158
*1220 FILLER_0_38_164
*1221 FILLER_0_38_172
*1222 FILLER_0_38_176
*1223 FILLER_0_38_182
*1224 FILLER_0_38_188
*1225 FILLER_0_38_194
*1226 FILLER_0_38_200
*1227 FILLER_0_38_206
*1228 FILLER_0_38_218
*1229 FILLER_0_38_225
*1230 FILLER_0_38_237
*1231 FILLER_0_38_249
*1232 FILLER_0_38_253
*1233 FILLER_0_38_265
*1234 FILLER_0_38_27
*1235 FILLER_0_38_277
*1236 FILLER_0_38_281
*1237 FILLER_0_38_29
*1238 FILLER_0_38_293
*1239 FILLER_0_38_3
*1240 FILLER_0_38_305
*1241 FILLER_0_38_309
*1242 FILLER_0_38_321
*1243 FILLER_0_38_333
*1244 FILLER_0_38_337
*1245 FILLER_0_38_349
*1246 FILLER_0_38_41
*1247 FILLER_0_38_53
*1248 FILLER_0_38_57
*1249 FILLER_0_38_68
*1250 FILLER_0_38_74
*1251 FILLER_0_38_80
*1252 FILLER_0_38_88
*1253 FILLER_0_38_92
*1254 FILLER_0_38_98
*1255 FILLER_0_3_105
*1256 FILLER_0_3_111
*1257 FILLER_0_3_113
*1258 FILLER_0_3_125
*1259 FILLER_0_3_137
*1260 FILLER_0_3_149
*1261 FILLER_0_3_15
*1262 FILLER_0_3_161
*1263 FILLER_0_3_167
*1264 FILLER_0_3_169
*1265 FILLER_0_3_181
*1266 FILLER_0_3_193
*1267 FILLER_0_3_205
*1268 FILLER_0_3_217
*1269 FILLER_0_3_223
*1270 FILLER_0_3_225
*1271 FILLER_0_3_237
*1272 FILLER_0_3_249
*1273 FILLER_0_3_261
*1274 FILLER_0_3_27
*1275 FILLER_0_3_273
*1276 FILLER_0_3_279
*1277 FILLER_0_3_281
*1278 FILLER_0_3_293
*1279 FILLER_0_3_3
*1280 FILLER_0_3_305
*1281 FILLER_0_3_317
*1282 FILLER_0_3_329
*1283 FILLER_0_3_335
*1284 FILLER_0_3_337
*1285 FILLER_0_3_349
*1286 FILLER_0_3_39
*1287 FILLER_0_3_51
*1288 FILLER_0_3_55
*1289 FILLER_0_3_57
*1290 FILLER_0_3_69
*1291 FILLER_0_3_81
*1292 FILLER_0_3_93
*1293 FILLER_0_4_109
*1294 FILLER_0_4_121
*1295 FILLER_0_4_133
*1296 FILLER_0_4_139
*1297 FILLER_0_4_141
*1298 FILLER_0_4_15
*1299 FILLER_0_4_153
*1300 FILLER_0_4_165
*1301 FILLER_0_4_177
*1302 FILLER_0_4_189
*1303 FILLER_0_4_195
*1304 FILLER_0_4_197
*1305 FILLER_0_4_209
*1306 FILLER_0_4_221
*1307 FILLER_0_4_233
*1308 FILLER_0_4_245
*1309 FILLER_0_4_251
*1310 FILLER_0_4_253
*1311 FILLER_0_4_265
*1312 FILLER_0_4_27
*1313 FILLER_0_4_277
*1314 FILLER_0_4_289
*1315 FILLER_0_4_29
*1316 FILLER_0_4_3
*1317 FILLER_0_4_301
*1318 FILLER_0_4_307
*1319 FILLER_0_4_309
*1320 FILLER_0_4_321
*1321 FILLER_0_4_333
*1322 FILLER_0_4_345
*1323 FILLER_0_4_41
*1324 FILLER_0_4_53
*1325 FILLER_0_4_65
*1326 FILLER_0_4_77
*1327 FILLER_0_4_83
*1328 FILLER_0_4_85
*1329 FILLER_0_4_97
*1330 FILLER_0_5_105
*1331 FILLER_0_5_111
*1332 FILLER_0_5_113
*1333 FILLER_0_5_125
*1334 FILLER_0_5_137
*1335 FILLER_0_5_149
*1336 FILLER_0_5_15
*1337 FILLER_0_5_161
*1338 FILLER_0_5_167
*1339 FILLER_0_5_169
*1340 FILLER_0_5_181
*1341 FILLER_0_5_193
*1342 FILLER_0_5_205
*1343 FILLER_0_5_217
*1344 FILLER_0_5_223
*1345 FILLER_0_5_225
*1346 FILLER_0_5_237
*1347 FILLER_0_5_249
*1348 FILLER_0_5_261
*1349 FILLER_0_5_27
*1350 FILLER_0_5_273
*1351 FILLER_0_5_279
*1352 FILLER_0_5_281
*1353 FILLER_0_5_293
*1354 FILLER_0_5_3
*1355 FILLER_0_5_305
*1356 FILLER_0_5_317
*1357 FILLER_0_5_329
*1358 FILLER_0_5_335
*1359 FILLER_0_5_337
*1360 FILLER_0_5_349
*1361 FILLER_0_5_39
*1362 FILLER_0_5_51
*1363 FILLER_0_5_55
*1364 FILLER_0_5_57
*1365 FILLER_0_5_69
*1366 FILLER_0_5_81
*1367 FILLER_0_5_93
*1368 FILLER_0_6_109
*1369 FILLER_0_6_121
*1370 FILLER_0_6_133
*1371 FILLER_0_6_139
*1372 FILLER_0_6_141
*1373 FILLER_0_6_15
*1374 FILLER_0_6_153
*1375 FILLER_0_6_165
*1376 FILLER_0_6_177
*1377 FILLER_0_6_189
*1378 FILLER_0_6_195
*1379 FILLER_0_6_197
*1380 FILLER_0_6_209
*1381 FILLER_0_6_221
*1382 FILLER_0_6_233
*1383 FILLER_0_6_245
*1384 FILLER_0_6_251
*1385 FILLER_0_6_253
*1386 FILLER_0_6_265
*1387 FILLER_0_6_27
*1388 FILLER_0_6_277
*1389 FILLER_0_6_289
*1390 FILLER_0_6_29
*1391 FILLER_0_6_3
*1392 FILLER_0_6_301
*1393 FILLER_0_6_307
*1394 FILLER_0_6_309
*1395 FILLER_0_6_321
*1396 FILLER_0_6_333
*1397 FILLER_0_6_345
*1398 FILLER_0_6_41
*1399 FILLER_0_6_53
*1400 FILLER_0_6_65
*1401 FILLER_0_6_77
*1402 FILLER_0_6_83
*1403 FILLER_0_6_85
*1404 FILLER_0_6_97
*1405 FILLER_0_7_105
*1406 FILLER_0_7_111
*1407 FILLER_0_7_113
*1408 FILLER_0_7_125
*1409 FILLER_0_7_137
*1410 FILLER_0_7_149
*1411 FILLER_0_7_15
*1412 FILLER_0_7_161
*1413 FILLER_0_7_167
*1414 FILLER_0_7_169
*1415 FILLER_0_7_181
*1416 FILLER_0_7_193
*1417 FILLER_0_7_205
*1418 FILLER_0_7_217
*1419 FILLER_0_7_223
*1420 FILLER_0_7_225
*1421 FILLER_0_7_237
*1422 FILLER_0_7_249
*1423 FILLER_0_7_261
*1424 FILLER_0_7_27
*1425 FILLER_0_7_273
*1426 FILLER_0_7_279
*1427 FILLER_0_7_281
*1428 FILLER_0_7_293
*1429 FILLER_0_7_3
*1430 FILLER_0_7_305
*1431 FILLER_0_7_317
*1432 FILLER_0_7_329
*1433 FILLER_0_7_335
*1434 FILLER_0_7_337
*1435 FILLER_0_7_349
*1436 FILLER_0_7_39
*1437 FILLER_0_7_51
*1438 FILLER_0_7_55
*1439 FILLER_0_7_57
*1440 FILLER_0_7_69
*1441 FILLER_0_7_81
*1442 FILLER_0_7_93
*1443 FILLER_0_8_109
*1444 FILLER_0_8_121
*1445 FILLER_0_8_133
*1446 FILLER_0_8_139
*1447 FILLER_0_8_141
*1448 FILLER_0_8_15
*1449 FILLER_0_8_153
*1450 FILLER_0_8_165
*1451 FILLER_0_8_177
*1452 FILLER_0_8_189