*SPEF "ieee 1481-1999"
*DESIGN "tt_um_dlmiles_tt05_i2c_bert"
*DATE "11:11:11 Fri 11 11, 1111"
*VENDOR "OpenRCX"
*PROGRAM "Parallel Extraction"
*VERSION "1.0"
*DESIGN_FLOW "NAME_SCOPE LOCAL" "PIN_CAP NONE"
*DIVIDER /
*DELIMITER :
*BUS_DELIMITER []
*T_UNIT 1 NS
*C_UNIT 1 PF
*R_UNIT 1 OHM
*L_UNIT 1 HENRY

*NAME_MAP
*3 clk
*4 ena
*5 rst_n
*6 ui_in[0]
*7 ui_in[1]
*8 ui_in[2]
*9 ui_in[3]
*10 ui_in[4]
*11 ui_in[5]
*12 ui_in[6]
*13 ui_in[7]
*14 uio_in[0]
*15 uio_in[1]
*16 uio_in[2]
*17 uio_in[3]
*18 uio_in[4]
*19 uio_in[5]
*20 uio_in[6]
*21 uio_in[7]
*22 net25
*23 net26
*24 uio_oe[2]
*25 uio_oe[3]
*26 net27
*27 net28
*28 net29
*29 net30
*30 net31
*31 net32
*32 uio_out[2]
*33 uio_out[3]
*34 net33
*35 net34
*36 net35
*37 net36
*38 net37
*39 net38
*40 net39
*41 net40
*42 net41
*43 net42
*44 net43
*45 uo_out[7]
*46 _0000_
*47 _0001_
*48 _0002_
*49 _0003_
*50 _0004_
*51 _0005_
*52 _0006_
*53 _0007_
*54 _0008_
*55 _0009_
*56 _0010_
*57 _0011_
*58 _0012_
*59 _0013_
*60 _0014_
*61 _0015_
*62 _0016_
*63 _0017_
*64 _0018_
*65 _0019_
*66 _0020_
*67 _0021_
*68 _0022_
*69 _0023_
*70 _0024_
*71 _0025_
*72 _0026_
*73 _0027_
*74 _0028_
*75 _0029_
*76 _0030_
*77 _0031_
*78 _0032_
*79 _0033_
*80 _0034_
*81 _0035_
*82 _0036_
*83 _0037_
*84 _0038_
*85 _0039_
*86 _0040_
*87 _0041_
*88 _0042_
*89 _0043_
*90 _0044_
*91 _0045_
*92 _0046_
*93 _0047_
*94 _0048_
*95 _0049_
*96 _0050_
*97 _0051_
*98 _0052_
*99 _0053_
*100 _0054_
*101 _0055_
*102 _0056_
*103 _0057_
*104 _0058_
*105 _0059_
*106 _0060_
*107 _0061_
*108 _0062_
*109 _0063_
*110 _0064_
*111 _0065_
*112 _0066_
*113 _0067_
*114 _0068_
*115 _0069_
*116 _0070_
*117 _0071_
*118 _0072_
*119 _0073_
*120 _0074_
*121 _0075_
*122 _0076_
*123 _0077_
*124 _0078_
*125 _0079_
*126 _0080_
*127 _0081_
*128 _0082_
*129 _0083_
*130 _0084_
*131 _0085_
*132 _0086_
*133 _0087_
*134 _0088_
*135 _0089_
*136 _0090_
*137 _0091_
*138 _0092_
*139 _0093_
*140 _0094_
*141 _0095_
*142 _0096_
*143 _0097_
*144 _0098_
*145 _0099_
*146 _0100_
*147 _0101_
*148 _0102_
*149 _0103_
*150 _0104_
*151 _0105_
*152 _0106_
*153 _0107_
*154 _0108_
*155 _0109_
*156 _0110_
*157 _0111_
*158 _0112_
*159 _0113_
*160 _0114_
*161 _0115_
*162 _0116_
*163 _0117_
*164 _0118_
*165 _0119_
*166 _0120_
*167 _0121_
*168 _0122_
*169 _0123_
*170 _0124_
*171 _0125_
*172 _0126_
*173 _0127_
*174 _0128_
*175 _0129_
*176 _0130_
*177 _0131_
*178 _0132_
*179 _0133_
*180 _0134_
*181 _0135_
*182 _0136_
*183 _0137_
*184 _0138_
*185 _0139_
*186 _0140_
*187 _0141_
*188 _0142_
*189 _0143_
*190 _0144_
*191 _0145_
*192 _0146_
*193 _0147_
*194 _0148_
*195 _0149_
*196 _0150_
*197 _0151_
*198 _0152_
*199 _0153_
*200 _0154_
*201 _0155_
*202 _0156_
*203 _0157_
*204 _0158_
*205 _0159_
*206 _0160_
*207 _0161_
*208 _0162_
*209 _0163_
*210 _0164_
*211 _0165_
*212 _0166_
*213 _0167_
*214 _0168_
*215 _0169_
*216 _0170_
*217 _0171_
*218 _0172_
*219 _0173_
*220 _0174_
*221 _0175_
*222 _0176_
*223 _0177_
*224 _0178_
*225 _0179_
*226 _0180_
*227 _0181_
*228 _0182_
*229 _0183_
*230 _0184_
*231 _0185_
*232 _0186_
*233 _0187_
*234 _0188_
*235 _0189_
*236 _0190_
*237 _0191_
*238 _0192_
*239 _0193_
*240 _0194_
*241 _0195_
*242 _0196_
*243 _0197_
*244 _0198_
*245 _0199_
*246 _0200_
*247 _0201_
*248 _0202_
*249 _0203_
*250 _0204_
*251 _0205_
*252 _0206_
*253 _0207_
*254 _0208_
*255 _0209_
*256 _0210_
*257 _0211_
*258 _0212_
*259 _0213_
*260 _0214_
*261 _0215_
*262 _0216_
*263 _0217_
*264 _0218_
*265 _0219_
*266 _0220_
*267 _0221_
*268 _0222_
*269 _0223_
*270 _0224_
*271 _0225_
*272 _0226_
*273 _0227_
*274 _0228_
*275 _0229_
*276 _0230_
*277 _0231_
*278 _0232_
*279 _0233_
*280 _0234_
*281 _0235_
*282 _0236_
*283 _0237_
*284 _0238_
*285 _0239_
*286 _0240_
*287 _0241_
*288 _0242_
*289 _0243_
*290 _0244_
*291 _0245_
*292 _0246_
*293 _0247_
*294 _0248_
*295 _0249_
*296 _0250_
*297 _0251_
*298 _0252_
*299 _0253_
*300 _0254_
*301 _0255_
*302 _0256_
*303 _0257_
*304 _0258_
*305 _0259_
*306 _0260_
*307 _0261_
*308 _0262_
*309 _0263_
*310 _0264_
*311 _0265_
*312 _0266_
*313 _0267_
*314 _0268_
*315 _0269_
*316 _0270_
*317 _0271_
*318 _0272_
*319 _0273_
*320 _0274_
*321 _0275_
*322 _0276_
*323 _0277_
*324 _0278_
*325 _0279_
*326 _0280_
*327 _0281_
*328 _0282_
*329 _0283_
*330 _0284_
*331 _0285_
*332 _0286_
*333 _0287_
*334 _0288_
*335 _0289_
*336 _0290_
*337 _0291_
*338 _0292_
*339 _0293_
*340 _0294_
*341 _0295_
*342 _0296_
*343 _0297_
*344 _0298_
*345 _0299_
*346 _0300_
*347 _0301_
*348 _0302_
*349 _0303_
*350 _0304_
*351 _0305_
*352 _0306_
*353 _0307_
*354 _0308_
*355 _0309_
*356 _0310_
*357 _0311_
*358 _0312_
*359 _0313_
*360 _0314_
*361 _0315_
*362 _0316_
*363 _0317_
*364 _0318_
*365 _0319_
*366 _0320_
*367 _0321_
*368 _0322_
*369 _0323_
*370 _0324_
*371 _0325_
*372 _0326_
*373 _0327_
*374 _0328_
*375 _0329_
*376 _0330_
*377 _0331_
*378 _0332_
*379 _0333_
*380 _0334_
*381 _0335_
*382 _0336_
*383 _0337_
*384 _0338_
*385 _0339_
*386 _0340_
*387 _0341_
*388 _0342_
*389 _0343_
*390 _0344_
*391 _0345_
*392 _0346_
*393 _0347_
*394 _0348_
*395 _0349_
*396 _0350_
*397 _0351_
*398 _0352_
*399 _0353_
*400 _0354_
*401 _0355_
*402 _0356_
*403 _0357_
*404 _0358_
*405 _0359_
*406 _0360_
*407 _0361_
*408 _0362_
*409 _0363_
*410 _0364_
*411 _0365_
*412 _0366_
*413 _0367_
*414 _0368_
*415 _0369_
*416 _0370_
*417 _0371_
*418 _0372_
*419 _0373_
*420 _0374_
*421 _0375_
*422 _0376_
*423 _0377_
*424 _0378_
*425 _0379_
*426 _0380_
*427 _0381_
*428 _0382_
*429 _0383_
*430 _0384_
*431 _0385_
*432 _0386_
*433 _0387_
*434 _0388_
*435 _0389_
*436 _0390_
*437 _0391_
*438 _0392_
*439 _0393_
*440 _0394_
*441 _0395_
*442 _0396_
*443 _0397_
*444 _0398_
*445 _0399_
*446 _0400_
*447 _0401_
*448 _0402_
*449 _0403_
*450 _0404_
*451 _0405_
*452 _0406_
*453 _0407_
*454 _0408_
*455 _0409_
*456 _0410_
*457 _0411_
*458 _0412_
*459 _0413_
*460 _0414_
*461 _0415_
*462 _0416_
*463 _0417_
*464 _0418_
*465 _0419_
*466 _0420_
*467 _0421_
*468 _0422_
*469 _0423_
*470 _0424_
*471 _0425_
*472 _0426_
*473 _0427_
*474 _0428_
*475 _0429_
*476 _0430_
*477 _0431_
*478 _0432_
*479 _0433_
*480 _0434_
*481 _0435_
*482 _0436_
*483 _0437_
*484 _0438_
*485 _0439_
*486 _0440_
*487 _0441_
*488 _0442_
*489 _0443_
*490 _0444_
*491 _0445_
*492 _0446_
*493 _0447_
*494 _0448_
*495 _0449_
*496 _0450_
*497 _0451_
*498 _0452_
*499 _0453_
*500 _0454_
*501 _0455_
*502 _0456_
*503 _0457_
*504 _0458_
*505 _0459_
*506 _0460_
*507 _0461_
*508 _0462_
*509 _0463_
*510 _0464_
*511 _0465_
*512 _0466_
*513 _0467_
*514 _0468_
*515 _0469_
*516 _0470_
*517 _0471_
*518 _0472_
*519 _0473_
*520 _0474_
*521 _0475_
*522 _0476_
*523 _0477_
*524 _0478_
*525 _0479_
*526 _0480_
*527 _0481_
*528 _0482_
*529 _0483_
*530 _0484_
*531 _0485_
*532 _0486_
*533 _0487_
*534 _0488_
*535 _0489_
*536 _0490_
*537 _0491_
*538 _0492_
*539 _0493_
*540 _0494_
*541 _0495_
*542 _0496_
*543 _0497_
*544 _0498_
*545 _0499_
*546 _0500_
*547 _0501_
*548 _0502_
*549 _0503_
*550 _0504_
*551 _0505_
*552 _0506_
*553 _0507_
*554 _0508_
*555 _0509_
*556 _0510_
*557 _0511_
*558 _0512_
*559 _0513_
*560 _0514_
*561 _0515_
*562 _0516_
*563 _0517_
*564 _0518_
*565 _0519_
*566 _0520_
*567 _0521_
*568 _0522_
*569 _0523_
*570 _0524_
*571 _0525_
*572 _0526_
*573 _0527_
*574 _0528_
*575 _0529_
*576 _0530_
*577 _0531_
*578 _0532_
*579 _0533_
*580 _0534_
*581 _0535_
*582 _0536_
*583 _0537_
*584 _0538_
*585 _0539_
*586 _0540_
*587 _0541_
*588 _0542_
*589 _0543_
*590 _0544_
*591 _0545_
*592 _0546_
*593 _0547_
*594 _0548_
*595 _0549_
*596 _0550_
*597 _0551_
*598 _0552_
*599 _0553_
*600 _0554_
*601 _0555_
*602 _0556_
*603 _0557_
*604 _0558_
*605 _0559_
*606 _0560_
*607 _0561_
*608 _0562_
*609 _0563_
*610 _0564_
*611 _0565_
*612 _0566_
*613 _0567_
*614 _0568_
*615 _0569_
*616 _0570_
*617 _0571_
*618 _0572_
*619 _0573_
*620 _0574_
*621 _0575_
*622 _0576_
*623 _0577_
*624 _0578_
*625 _0579_
*626 _0580_
*627 _0581_
*628 _0582_
*629 _0583_
*630 _0584_
*631 _0585_
*632 _0586_
*633 _0587_
*634 _0588_
*635 _0589_
*636 _0590_
*637 _0591_
*638 _0592_
*639 _0593_
*640 _0594_
*641 _0595_
*642 _0596_
*643 _0597_
*644 _0598_
*645 _0599_
*646 _0600_
*647 _0601_
*648 _0602_
*649 _0603_
*650 _0604_
*651 _0605_
*652 _0606_
*653 _0607_
*654 _0608_
*655 _0609_
*656 _0610_
*657 _0611_
*658 _0612_
*659 _0613_
*660 _0614_
*661 _0615_
*662 _0616_
*663 _0617_
*664 _0618_
*665 clknet_0_clk
*666 clknet_3_0__leaf_clk
*667 clknet_3_1__leaf_clk
*668 clknet_3_2__leaf_clk
*669 clknet_3_3__leaf_clk
*670 clknet_3_4__leaf_clk
*671 clknet_3_5__leaf_clk
*672 clknet_3_6__leaf_clk
*673 clknet_3_7__leaf_clk
*674 i2c_bert\.div12\[0\]
*675 i2c_bert\.div12\[10\]
*676 i2c_bert\.div12\[11\]
*677 i2c_bert\.div12\[1\]
*678 i2c_bert\.div12\[2\]
*679 i2c_bert\.div12\[3\]
*680 i2c_bert\.div12\[4\]
*681 i2c_bert\.div12\[5\]
*682 i2c_bert\.div12\[6\]
*683 i2c_bert\.div12\[7\]
*684 i2c_bert\.div12\[8\]
*685 i2c_bert\.div12\[9\]
*686 i2c_bert\.div12active
*687 i2c_bert\.i2c\.clockGate\.clk_0
*688 i2c_bert\.i2c\.clockGate\.sel
*689 i2c_bert\.i2c\.fsm_bitCount\[0\]
*690 i2c_bert\.i2c\.fsm_bitCount\[1\]
*691 i2c_bert\.i2c\.fsm_bitCount\[2\]
*692 i2c_bert\.i2c\.fsm_stateReg\[0\]
*693 i2c_bert\.i2c\.fsm_stateReg\[1\]
*694 i2c_bert\.i2c\.fsm_stateReg\[2\]
*695 i2c_bert\.i2c\.fsm_stateReg\[3\]
*696 i2c_bert\.i2c\.history_1
*697 i2c_bert\.i2c\.history_2
*698 i2c_bert\.i2c\.i2c_maj3_X_regNext
*699 i2c_bert\.i2c\.io_bus_sclOe
*700 i2c_bert\.i2c\.io_bus_sdaOe
*701 i2c_bert\.i2c\.io_bus_sdaOut
*702 i2c_bert\.i2c\.io_canStretch
*703 i2c_bert\.i2c\.io_data8rx\[0\]
*704 i2c_bert\.i2c\.io_data8rx\[1\]
*705 i2c_bert\.i2c\.io_data8rx\[2\]
*706 i2c_bert\.i2c\.io_data8rx\[3\]
*707 i2c_bert\.i2c\.io_data8rx\[4\]
*708 i2c_bert\.i2c\.io_data8rx\[5\]
*709 i2c_bert\.i2c\.io_data8rx\[6\]
*710 i2c_bert\.i2c\.io_data8rx\[7\]
*711 i2c_bert\.i2c\.io_pushPullMode
*712 i2c_bert\.i2c\.maj3_X
*713 i2c_bert\.i2c\.rst_n
*714 i2c_bert\.i2c\.sclSignalNext_regNext
*715 i2c_bert\.latched\[0\]
*716 i2c_bert\.latched\[16\]
*717 i2c_bert\.latched\[17\]
*718 i2c_bert\.latched\[18\]
*719 i2c_bert\.latched\[19\]
*720 i2c_bert\.latched\[20\]
*721 i2c_bert\.latched\[21\]
*722 i2c_bert\.latched\[22\]
*723 i2c_bert\.latched\[23\]
*724 i2c_bert\.latched\[24\]
*725 i2c_bert\.latched\[25\]
*726 i2c_bert\.latched\[26\]
*727 i2c_bert\.latched\[27\]
*728 i2c_bert\.latched\[28\]
*729 i2c_bert\.latched\[29\]
*730 i2c_bert\.latched\[30\]
*731 i2c_bert\.latched\[31\]
*732 i2c_bert\.myState_1\._zz__zz_io_data8tx\[0\]
*733 i2c_bert\.myState_1\._zz__zz_io_data8tx\[1\]
*734 i2c_bert\.myState_1\._zz__zz_io_data8tx\[2\]
*735 i2c_bert\.myState_1\._zz__zz_io_data8tx\[3\]
*736 i2c_bert\.myState_1\.alu_1\.acc\[0\]
*737 i2c_bert\.myState_1\.alu_1\.acc\[1\]
*738 i2c_bert\.myState_1\.alu_1\.acc\[2\]
*739 i2c_bert\.myState_1\.alu_1\.acc\[3\]
*740 i2c_bert\.myState_1\.alu_1\.acc\[4\]
*741 i2c_bert\.myState_1\.alu_1\.acc\[5\]
*742 i2c_bert\.myState_1\.alu_1\.acc\[6\]
*743 i2c_bert\.myState_1\.alu_1\.acc\[7\]
*744 i2c_bert\.myState_1\.alu_1\.io_op\[0\]
*745 i2c_bert\.myState_1\.alu_1\.io_op\[1\]
*746 i2c_bert\.myState_1\.cmd7\[0\]
*747 i2c_bert\.myState_1\.cmd7\[3\]
*748 i2c_bert\.myState_1\.cmd7\[4\]
*749 i2c_bert\.myState_1\.cmd7\[5\]
*750 i2c_bert\.myState_1\.cmd7\[6\]
*751 i2c_bert\.myState_1\.counter\[0\]
*752 i2c_bert\.myState_1\.counter\[10\]
*753 i2c_bert\.myState_1\.counter\[11\]
*754 i2c_bert\.myState_1\.counter\[1\]
*755 i2c_bert\.myState_1\.counter\[2\]
*756 i2c_bert\.myState_1\.counter\[3\]
*757 i2c_bert\.myState_1\.counter\[4\]
*758 i2c_bert\.myState_1\.counter\[5\]
*759 i2c_bert\.myState_1\.counter\[6\]
*760 i2c_bert\.myState_1\.counter\[7\]
*761 i2c_bert\.myState_1\.counter\[8\]
*762 i2c_bert\.myState_1\.counter\[9\]
*763 i2c_bert\.myState_1\.fsmPhase_stateReg\[1\]
*764 i2c_bert\.myState_1\.fsmPhase_stateReg\[2\]
*765 i2c_bert\.myState_1\.fsmPhase_stateReg\[3\]
*766 i2c_bert\.myState_1\.fsmPhase_stateReg\[5\]
*767 i2c_bert\.myState_1\.io_timerEndstop\[0\]
*768 i2c_bert\.myState_1\.io_timerEndstop\[1\]
*769 i2c_bert\.myState_1\.io_timerEndstop\[2\]
*770 i2c_bert\.myState_1\.io_timerEndstop\[3\]
*771 i2c_bert\.myState_1\.io_timerEndstop\[4\]
*772 i2c_bert\.myState_1\.io_timerEndstop\[5\]
*773 i2c_bert\.myState_1\.io_timerEndstop\[6\]
*774 i2c_bert\.myState_1\.io_timerEndstop\[7\]
*775 i2c_bert\.myState_1\.len12\[10\]
*776 i2c_bert\.myState_1\.len12\[11\]
*777 i2c_bert\.myState_1\.len12\[4\]
*778 i2c_bert\.myState_1\.len12\[5\]
*779 i2c_bert\.myState_1\.len12\[6\]
*780 i2c_bert\.myState_1\.len12\[7\]
*781 i2c_bert\.myState_1\.len12\[8\]
*782 i2c_bert\.myState_1\.len12\[9\]
*783 i2c_bert\.myState_1\.readWriteBit
*784 i2c_bert\.powerOnSenseCaptured_Q
*785 i2c_bert\.powerOnSense_D
*786 i2c_bert\.powerOnSense_GATE
*787 i2c_bert\.powerOnSense_Q
*788 i2c_bert\.timer_1\.io_canPowerOnReset
*789 i2c_bert\.timer_1\.ticker_count\[0\]
*790 i2c_bert\.timer_1\.ticker_count\[10\]
*791 i2c_bert\.timer_1\.ticker_count\[11\]
*792 i2c_bert\.timer_1\.ticker_count\[1\]
*793 i2c_bert\.timer_1\.ticker_count\[2\]
*794 i2c_bert\.timer_1\.ticker_count\[3\]
*795 i2c_bert\.timer_1\.ticker_count\[4\]
*796 i2c_bert\.timer_1\.ticker_count\[5\]
*797 i2c_bert\.timer_1\.ticker_count\[6\]
*798 i2c_bert\.timer_1\.ticker_count\[7\]
*799 i2c_bert\.timer_1\.ticker_count\[8\]
*800 i2c_bert\.timer_1\.ticker_count\[9\]
*801 net1
*802 net10
*803 net11
*804 net12
*805 net13
*806 net14
*807 net15
*808 net16
*809 net17
*810 net18
*811 net19
*812 net2
*813 net20
*814 net21
*815 net22
*816 net23
*817 net24
*818 net3
*819 net4
*820 net44
*821 net45
*822 net46
*823 net47
*824 net48
*825 net49
*826 net5
*827 net50
*828 net51
*829 net52
*830 net53
*831 net54
*832 net55
*833 net56
*834 net57
*835 net58
*836 net59
*837 net6
*838 net60
*839 net61
*840 net62
*841 net63
*842 net64
*843 net65
*844 net66
*845 net67
*846 net68
*847 net69
*848 net7
*849 net70
*850 net8
*851 net9
*852 FILLER_0_0_109
*853 FILLER_0_0_113
*854 FILLER_0_0_125
*855 FILLER_0_0_137
*856 FILLER_0_0_141
*857 FILLER_0_0_15
*858 FILLER_0_0_153
*859 FILLER_0_0_165
*860 FILLER_0_0_169
*861 FILLER_0_0_181
*862 FILLER_0_0_193
*863 FILLER_0_0_197
*864 FILLER_0_0_209
*865 FILLER_0_0_221
*866 FILLER_0_0_225
*867 FILLER_0_0_237
*868 FILLER_0_0_249
*869 FILLER_0_0_253
*870 FILLER_0_0_265
*871 FILLER_0_0_27
*872 FILLER_0_0_277
*873 FILLER_0_0_281
*874 FILLER_0_0_29
*875 FILLER_0_0_293
*876 FILLER_0_0_3
*877 FILLER_0_0_305
*878 FILLER_0_0_309
*879 FILLER_0_0_321
*880 FILLER_0_0_333
*881 FILLER_0_0_337
*882 FILLER_0_0_349
*883 FILLER_0_0_41
*884 FILLER_0_0_53
*885 FILLER_0_0_57
*886 FILLER_0_0_69
*887 FILLER_0_0_81
*888 FILLER_0_0_85
*889 FILLER_0_0_97
*890 FILLER_0_10_118
*891 FILLER_0_10_132
*892 FILLER_0_10_149
*893 FILLER_0_10_15
*894 FILLER_0_10_156
*895 FILLER_0_10_160
*896 FILLER_0_10_174
*897 FILLER_0_10_186
*898 FILLER_0_10_194
*899 FILLER_0_10_206
*900 FILLER_0_10_214
*901 FILLER_0_10_223
*902 FILLER_0_10_243
*903 FILLER_0_10_251
*904 FILLER_0_10_253
*905 FILLER_0_10_27
*906 FILLER_0_10_274
*907 FILLER_0_10_286
*908 FILLER_0_10_29
*909 FILLER_0_10_3
*910 FILLER_0_10_307
*911 FILLER_0_10_309
*912 FILLER_0_10_321
*913 FILLER_0_10_333
*914 FILLER_0_10_345
*915 FILLER_0_10_41
*916 FILLER_0_10_53
*917 FILLER_0_10_65
*918 FILLER_0_10_76
*919 FILLER_0_10_85
*920 FILLER_0_10_97
*921 FILLER_0_11_101
*922 FILLER_0_11_109
*923 FILLER_0_11_113
*924 FILLER_0_11_125
*925 FILLER_0_11_134
*926 FILLER_0_11_140
*927 FILLER_0_11_15
*928 FILLER_0_11_157
*929 FILLER_0_11_165
*930 FILLER_0_11_185
*931 FILLER_0_11_202
*932 FILLER_0_11_208
*933 FILLER_0_11_212
*934 FILLER_0_11_257
*935 FILLER_0_11_27
*936 FILLER_0_11_281
*937 FILLER_0_11_293
*938 FILLER_0_11_3
*939 FILLER_0_11_314
*940 FILLER_0_11_326
*941 FILLER_0_11_334
*942 FILLER_0_11_337
*943 FILLER_0_11_349
*944 FILLER_0_11_39
*945 FILLER_0_11_51
*946 FILLER_0_11_55
*947 FILLER_0_11_81
*948 FILLER_0_11_94
*949 FILLER_0_12_112
*950 FILLER_0_12_124
*951 FILLER_0_12_130
*952 FILLER_0_12_134
*953 FILLER_0_12_141
*954 FILLER_0_12_149
*955 FILLER_0_12_15
*956 FILLER_0_12_153
*957 FILLER_0_12_176
*958 FILLER_0_12_188
*959 FILLER_0_12_229
*960 FILLER_0_12_241
*961 FILLER_0_12_245
*962 FILLER_0_12_251
*963 FILLER_0_12_253
*964 FILLER_0_12_265
*965 FILLER_0_12_27
*966 FILLER_0_12_273
*967 FILLER_0_12_285
*968 FILLER_0_12_29
*969 FILLER_0_12_3
*970 FILLER_0_12_307
*971 FILLER_0_12_309
*972 FILLER_0_12_318
*973 FILLER_0_12_330
*974 FILLER_0_12_342
*975 FILLER_0_12_350
*976 FILLER_0_12_41
*977 FILLER_0_12_53
*978 FILLER_0_12_65
*979 FILLER_0_12_75
*980 FILLER_0_12_83
*981 FILLER_0_12_85
*982 FILLER_0_12_97
*983 FILLER_0_13_103
*984 FILLER_0_13_124
*985 FILLER_0_13_143
*986 FILLER_0_13_15
*987 FILLER_0_13_155
*988 FILLER_0_13_161
*989 FILLER_0_13_167
*990 FILLER_0_13_169
*991 FILLER_0_13_188
*992 FILLER_0_13_219
*993 FILLER_0_13_236
*994 FILLER_0_13_27
*995 FILLER_0_13_278
*996 FILLER_0_13_298
*997 FILLER_0_13_3
*998 FILLER_0_13_302
*999 FILLER_0_13_328
*1000 FILLER_0_13_337
*1001 FILLER_0_13_349
*1002 FILLER_0_13_39
*1003 FILLER_0_13_51
*1004 FILLER_0_13_55
*1005 FILLER_0_13_91
*1006 FILLER_0_14_110
*1007 FILLER_0_14_114
*1008 FILLER_0_14_121
*1009 FILLER_0_14_129
*1010 FILLER_0_14_139
*1011 FILLER_0_14_146
*1012 FILLER_0_14_15
*1013 FILLER_0_14_159
*1014 FILLER_0_14_163
*1015 FILLER_0_14_175
*1016 FILLER_0_14_183
*1017 FILLER_0_14_200
*1018 FILLER_0_14_228
*1019 FILLER_0_14_251
*1020 FILLER_0_14_266
*1021 FILLER_0_14_27
*1022 FILLER_0_14_274
*1023 FILLER_0_14_286
*1024 FILLER_0_14_29
*1025 FILLER_0_14_3
*1026 FILLER_0_14_301
*1027 FILLER_0_14_307
*1028 FILLER_0_14_317
*1029 FILLER_0_14_335
*1030 FILLER_0_14_347
*1031 FILLER_0_14_41
*1032 FILLER_0_14_53
*1033 FILLER_0_14_61
*1034 FILLER_0_14_83
*1035 FILLER_0_14_85
*1036 FILLER_0_15_102
*1037 FILLER_0_15_110
*1038 FILLER_0_15_113
*1039 FILLER_0_15_126
*1040 FILLER_0_15_134
*1041 FILLER_0_15_141
*1042 FILLER_0_15_15
*1043 FILLER_0_15_160
*1044 FILLER_0_15_169
*1045 FILLER_0_15_185
*1046 FILLER_0_15_197
*1047 FILLER_0_15_205
*1048 FILLER_0_15_223
*1049 FILLER_0_15_225
*1050 FILLER_0_15_256
*1051 FILLER_0_15_266
*1052 FILLER_0_15_27
*1053 FILLER_0_15_277
*1054 FILLER_0_15_297
*1055 FILLER_0_15_3
*1056 FILLER_0_15_324
*1057 FILLER_0_15_337
*1058 FILLER_0_15_349
*1059 FILLER_0_15_39
*1060 FILLER_0_15_51
*1061 FILLER_0_15_55
*1062 FILLER_0_15_73
*1063 FILLER_0_15_95
*1064 FILLER_0_16_112
*1065 FILLER_0_16_149
*1066 FILLER_0_16_15
*1067 FILLER_0_16_164
*1068 FILLER_0_16_170
*1069 FILLER_0_16_181
*1070 FILLER_0_16_205
*1071 FILLER_0_16_211
*1072 FILLER_0_16_228
*1073 FILLER_0_16_234
*1074 FILLER_0_16_245
*1075 FILLER_0_16_251
*1076 FILLER_0_16_253
*1077 FILLER_0_16_262
*1078 FILLER_0_16_27
*1079 FILLER_0_16_274
*1080 FILLER_0_16_286
*1081 FILLER_0_16_29
*1082 FILLER_0_16_295
*1083 FILLER_0_16_3
*1084 FILLER_0_16_307
*1085 FILLER_0_16_309
*1086 FILLER_0_16_317
*1087 FILLER_0_16_41
*1088 FILLER_0_16_53
*1089 FILLER_0_16_76
*1090 FILLER_0_16_88
*1091 FILLER_0_17_104
*1092 FILLER_0_17_120
*1093 FILLER_0_17_128
*1094 FILLER_0_17_139
*1095 FILLER_0_17_15
*1096 FILLER_0_17_166
*1097 FILLER_0_17_169
*1098 FILLER_0_17_182
*1099 FILLER_0_17_207
*1100 FILLER_0_17_222
*1101 FILLER_0_17_225
*1102 FILLER_0_17_233
*1103 FILLER_0_17_243
*1104 FILLER_0_17_254
*1105 FILLER_0_17_265
*1106 FILLER_0_17_27
*1107 FILLER_0_17_277
*1108 FILLER_0_17_281
*1109 FILLER_0_17_3
*1110 FILLER_0_17_309
*1111 FILLER_0_17_317
*1112 FILLER_0_17_335
*1113 FILLER_0_17_344
*1114 FILLER_0_17_350
*1115 FILLER_0_17_41
*1116 FILLER_0_17_53
*1117 FILLER_0_17_57
*1118 FILLER_0_17_66
*1119 FILLER_0_17_78
*1120 FILLER_0_17_84
*1121 FILLER_0_17_93
*1122 FILLER_0_18_11
*1123 FILLER_0_18_128
*1124 FILLER_0_18_136
*1125 FILLER_0_18_141
*1126 FILLER_0_18_149
*1127 FILLER_0_18_161
*1128 FILLER_0_18_165
*1129 FILLER_0_18_173
*1130 FILLER_0_18_177
*1131 FILLER_0_18_185
*1132 FILLER_0_18_209
*1133 FILLER_0_18_217
*1134 FILLER_0_18_222
*1135 FILLER_0_18_230
*1136 FILLER_0_18_248
*1137 FILLER_0_18_253
*1138 FILLER_0_18_279
*1139 FILLER_0_18_29
*1140 FILLER_0_18_293
*1141 FILLER_0_18_3
*1142 FILLER_0_18_305
*1143 FILLER_0_18_309
*1144 FILLER_0_18_320
*1145 FILLER_0_18_330
*1146 FILLER_0_18_37
*1147 FILLER_0_18_55
*1148 FILLER_0_18_59
*1149 FILLER_0_18_64
*1150 FILLER_0_18_85
*1151 FILLER_0_18_99
*1152 FILLER_0_19_136
*1153 FILLER_0_19_15
*1154 FILLER_0_19_155
*1155 FILLER_0_19_167
*1156 FILLER_0_19_186
*1157 FILLER_0_19_191
*1158 FILLER_0_19_195
*1159 FILLER_0_19_200
*1160 FILLER_0_19_212
*1161 FILLER_0_19_222
*1162 FILLER_0_19_225
*1163 FILLER_0_19_229
*1164 FILLER_0_19_233
*1165 FILLER_0_19_243
*1166 FILLER_0_19_255
*1167 FILLER_0_19_259
*1168 FILLER_0_19_263
*1169 FILLER_0_19_275
*1170 FILLER_0_19_279
*1171 FILLER_0_19_295
*1172 FILLER_0_19_3
*1173 FILLER_0_19_301
*1174 FILLER_0_19_308
*1175 FILLER_0_19_320
*1176 FILLER_0_19_337
*1177 FILLER_0_19_349
*1178 FILLER_0_19_42
*1179 FILLER_0_19_54
*1180 FILLER_0_19_73
*1181 FILLER_0_19_81
*1182 FILLER_0_1_105
*1183 FILLER_0_1_111
*1184 FILLER_0_1_113
*1185 FILLER_0_1_125
*1186 FILLER_0_1_137
*1187 FILLER_0_1_149
*1188 FILLER_0_1_15
*1189 FILLER_0_1_161
*1190 FILLER_0_1_167
*1191 FILLER_0_1_169
*1192 FILLER_0_1_181
*1193 FILLER_0_1_193
*1194 FILLER_0_1_205
*1195 FILLER_0_1_217
*1196 FILLER_0_1_223
*1197 FILLER_0_1_225
*1198 FILLER_0_1_237
*1199 FILLER_0_1_249
*1200 FILLER_0_1_261
*1201 FILLER_0_1_27
*1202 FILLER_0_1_273
*1203 FILLER_0_1_279
*1204 FILLER_0_1_281
*1205 FILLER_0_1_293
*1206 FILLER_0_1_3
*1207 FILLER_0_1_305
*1208 FILLER_0_1_317
*1209 FILLER_0_1_329
*1210 FILLER_0_1_335
*1211 FILLER_0_1_337
*1212 FILLER_0_1_349
*1213 FILLER_0_1_39
*1214 FILLER_0_1_51
*1215 FILLER_0_1_55
*1216 FILLER_0_1_57
*1217 FILLER_0_1_69
*1218 FILLER_0_1_81
*1219 FILLER_0_1_93
*1220 FILLER_0_20_112
*1221 FILLER_0_20_127
*1222 FILLER_0_20_152
*1223 FILLER_0_20_165
*1224 FILLER_0_20_173
*1225 FILLER_0_20_180
*1226 FILLER_0_20_192
*1227 FILLER_0_20_197
*1228 FILLER_0_20_201
*1229 FILLER_0_20_213
*1230 FILLER_0_20_228
*1231 FILLER_0_20_232
*1232 FILLER_0_20_263
*1233 FILLER_0_20_274
*1234 FILLER_0_20_282
*1235 FILLER_0_20_293
*1236 FILLER_0_20_301
*1237 FILLER_0_20_318
*1238 FILLER_0_20_337
*1239 FILLER_0_20_34
*1240 FILLER_0_20_349
*1241 FILLER_0_20_41
*1242 FILLER_0_20_53
*1243 FILLER_0_20_61
*1244 FILLER_0_20_72
*1245 FILLER_0_20_78
*1246 FILLER_0_21_100
*1247 FILLER_0_21_107
*1248 FILLER_0_21_111
*1249 FILLER_0_21_113
*1250 FILLER_0_21_125
*1251 FILLER_0_21_130
*1252 FILLER_0_21_138
*1253 FILLER_0_21_144
*1254 FILLER_0_21_15
*1255 FILLER_0_21_156
*1256 FILLER_0_21_183
*1257 FILLER_0_21_192
*1258 FILLER_0_21_206
*1259 FILLER_0_21_214
*1260 FILLER_0_21_225
*1261 FILLER_0_21_23
*1262 FILLER_0_21_235
*1263 FILLER_0_21_239
*1264 FILLER_0_21_243
*1265 FILLER_0_21_255
*1266 FILLER_0_21_263
*1267 FILLER_0_21_271
*1268 FILLER_0_21_279
*1269 FILLER_0_21_281
*1270 FILLER_0_21_29
*1271 FILLER_0_21_3
*1272 FILLER_0_21_301
*1273 FILLER_0_21_309
*1274 FILLER_0_21_321
*1275 FILLER_0_21_33
*1276 FILLER_0_21_334
*1277 FILLER_0_21_337
*1278 FILLER_0_21_349
*1279 FILLER_0_21_45
*1280 FILLER_0_21_57
*1281 FILLER_0_21_61
*1282 FILLER_0_21_76
*1283 FILLER_0_21_84
*1284 FILLER_0_21_94
*1285 FILLER_0_22_101
*1286 FILLER_0_22_108
*1287 FILLER_0_22_128
*1288 FILLER_0_22_136
*1289 FILLER_0_22_141
*1290 FILLER_0_22_145
*1291 FILLER_0_22_163
*1292 FILLER_0_22_171
*1293 FILLER_0_22_182
*1294 FILLER_0_22_19
*1295 FILLER_0_22_194
*1296 FILLER_0_22_221
*1297 FILLER_0_22_233
*1298 FILLER_0_22_237
*1299 FILLER_0_22_241
*1300 FILLER_0_22_249
*1301 FILLER_0_22_26
*1302 FILLER_0_22_263
*1303 FILLER_0_22_276
*1304 FILLER_0_22_300
*1305 FILLER_0_22_309
*1306 FILLER_0_22_332
*1307 FILLER_0_22_35
*1308 FILLER_0_22_46
*1309 FILLER_0_22_58
*1310 FILLER_0_22_66
*1311 FILLER_0_22_79
*1312 FILLER_0_22_83
*1313 FILLER_0_22_85
*1314 FILLER_0_23_111
*1315 FILLER_0_23_113
*1316 FILLER_0_23_121
*1317 FILLER_0_23_146
*1318 FILLER_0_23_15
*1319 FILLER_0_23_163
*1320 FILLER_0_23_167
*1321 FILLER_0_23_169
*1322 FILLER_0_23_190
*1323 FILLER_0_23_201
*1324 FILLER_0_23_23
*1325 FILLER_0_23_233
*1326 FILLER_0_23_248
*1327 FILLER_0_23_260
*1328 FILLER_0_23_275
*1329 FILLER_0_23_279
*1330 FILLER_0_23_281
*1331 FILLER_0_23_287
*1332 FILLER_0_23_29
*1333 FILLER_0_23_293
*1334 FILLER_0_23_3
*1335 FILLER_0_23_305
*1336 FILLER_0_23_340
*1337 FILLER_0_23_348
*1338 FILLER_0_23_41
*1339 FILLER_0_23_55
*1340 FILLER_0_23_57
*1341 FILLER_0_23_65
*1342 FILLER_0_23_77
*1343 FILLER_0_23_84
*1344 FILLER_0_23_96
*1345 FILLER_0_24_104
*1346 FILLER_0_24_119
*1347 FILLER_0_24_131
*1348 FILLER_0_24_138
*1349 FILLER_0_24_144
*1350 FILLER_0_24_152
*1351 FILLER_0_24_156
*1352 FILLER_0_24_16
*1353 FILLER_0_24_171
*1354 FILLER_0_24_189
*1355 FILLER_0_24_197
*1356 FILLER_0_24_20
*1357 FILLER_0_24_228
*1358 FILLER_0_24_251
*1359 FILLER_0_24_256
*1360 FILLER_0_24_268
*1361 FILLER_0_24_276
*1362 FILLER_0_24_284
*1363 FILLER_0_24_297
*1364 FILLER_0_24_3
*1365 FILLER_0_24_316
*1366 FILLER_0_24_350
*1367 FILLER_0_24_36
*1368 FILLER_0_24_40
*1369 FILLER_0_24_61
*1370 FILLER_0_24_80
*1371 FILLER_0_24_85
*1372 FILLER_0_24_9
*1373 FILLER_0_24_96
*1374 FILLER_0_25_104
*1375 FILLER_0_25_13
*1376 FILLER_0_25_134
*1377 FILLER_0_25_156
*1378 FILLER_0_25_169
*1379 FILLER_0_25_180
*1380 FILLER_0_25_184
*1381 FILLER_0_25_201
*1382 FILLER_0_25_219
*1383 FILLER_0_25_223
*1384 FILLER_0_25_225
*1385 FILLER_0_25_244
*1386 FILLER_0_25_249
*1387 FILLER_0_25_25
*1388 FILLER_0_25_253
*1389 FILLER_0_25_261
*1390 FILLER_0_25_271
*1391 FILLER_0_25_275
*1392 FILLER_0_25_279
*1393 FILLER_0_25_281
*1394 FILLER_0_25_295
*1395 FILLER_0_25_3
*1396 FILLER_0_25_311
*1397 FILLER_0_25_323
*1398 FILLER_0_25_333
*1399 FILLER_0_25_36
*1400 FILLER_0_25_51
*1401 FILLER_0_25_55
*1402 FILLER_0_25_65
*1403 FILLER_0_25_71
*1404 FILLER_0_25_75
*1405 FILLER_0_25_87
*1406 FILLER_0_26_113
*1407 FILLER_0_26_125
*1408 FILLER_0_26_131
*1409 FILLER_0_26_141
*1410 FILLER_0_26_15
*1411 FILLER_0_26_153
*1412 FILLER_0_26_159
*1413 FILLER_0_26_166
*1414 FILLER_0_26_182
*1415 FILLER_0_26_188
*1416 FILLER_0_26_192
*1417 FILLER_0_26_197
*1418 FILLER_0_26_208
*1419 FILLER_0_26_21
*1420 FILLER_0_26_220
*1421 FILLER_0_26_231
*1422 FILLER_0_26_239
*1423 FILLER_0_26_259
*1424 FILLER_0_26_267
*1425 FILLER_0_26_27
*1426 FILLER_0_26_284
*1427 FILLER_0_26_29
*1428 FILLER_0_26_296
*1429 FILLER_0_26_3
*1430 FILLER_0_26_323
*1431 FILLER_0_26_331
*1432 FILLER_0_26_349
*1433 FILLER_0_26_37
*1434 FILLER_0_26_60
*1435 FILLER_0_26_73
*1436 FILLER_0_26_82
*1437 FILLER_0_26_88
*1438 FILLER_0_26_96
*1439 FILLER_0_27_111
*1440 FILLER_0_27_122
*1441 FILLER_0_27_126
*1442 FILLER_0_27_136
*1443 FILLER_0_27_164
*1444 FILLER_0_27_169
*1445 FILLER_0_27_183
*1446 FILLER_0_27_200
*1447 FILLER_0_27_215
*1448 FILLER_0_27_239
*1449 FILLER_0_27_243
*1450 FILLER_0_27_251
*1451 FILLER_0_27_271
*1452 FILLER_0_27_279
*1453 FILLER_0_27_300
*1454 FILLER_0_27_308
*1455 FILLER_0_27_313
*1456 FILLER_0_27_32
*1457 FILLER_0_27_325
*1458 FILLER_0_27_334
*1459 FILLER_0_27_337
*1460 FILLER_0_27_349
*1461 FILLER_0_27_36
*1462 FILLER_0_27_44
*1463 FILLER_0_27_57
*1464 FILLER_0_27_61
*1465 FILLER_0_27_75
*1466 FILLER_0_27_83
*1467 FILLER_0_27_99
*1468 FILLER_0_28_101
*1469 FILLER_0_28_109
*1470 FILLER_0_28_135
*1471 FILLER_0_28_139
*1472 FILLER_0_28_141
*1473 FILLER_0_28_147
*1474 FILLER_0_28_15
*1475 FILLER_0_28_172
*1476 FILLER_0_28_180
*1477 FILLER_0_28_184
*1478 FILLER_0_28_193
*1479 FILLER_0_28_197
*1480 FILLER_0_28_208
*1481 FILLER_0_28_220
*1482 FILLER_0_28_228
*1483 FILLER_0_28_240
*1484 FILLER_0_28_245
*1485 FILLER_0_28_251
*1486 FILLER_0_28_253
*1487 FILLER_0_28_265
*1488 FILLER_0_28_287
*1489 FILLER_0_28_299
*1490 FILLER_0_28_3
*1491 FILLER_0_28_307
*1492 FILLER_0_28_315
*1493 FILLER_0_28_323
*1494 FILLER_0_28_42
*1495 FILLER_0_28_47
*1496 FILLER_0_28_59
*1497 FILLER_0_28_68
*1498 FILLER_0_28_72
*1499 FILLER_0_28_85
*1500 FILLER_0_29_155
*1501 FILLER_0_29_167
*1502 FILLER_0_29_183
*1503 FILLER_0_29_191
*1504 FILLER_0_29_201
*1505 FILLER_0_29_223
*1506 FILLER_0_29_225
*1507 FILLER_0_29_233
*1508 FILLER_0_29_268
*1509 FILLER_0_29_281
*1510 FILLER_0_29_299
*1511 FILLER_0_29_321
*1512 FILLER_0_29_327
*1513 FILLER_0_29_334
*1514 FILLER_0_29_337
*1515 FILLER_0_29_349
*1516 FILLER_0_29_41
*1517 FILLER_0_29_55
*1518 FILLER_0_29_79
*1519 FILLER_0_2_109
*1520 FILLER_0_2_121
*1521 FILLER_0_2_133
*1522 FILLER_0_2_139
*1523 FILLER_0_2_141
*1524 FILLER_0_2_15
*1525 FILLER_0_2_153
*1526 FILLER_0_2_165
*1527 FILLER_0_2_177
*1528 FILLER_0_2_189
*1529 FILLER_0_2_195
*1530 FILLER_0_2_197
*1531 FILLER_0_2_209
*1532 FILLER_0_2_221
*1533 FILLER_0_2_233
*1534 FILLER_0_2_245
*1535 FILLER_0_2_251
*1536 FILLER_0_2_253
*1537 FILLER_0_2_265
*1538 FILLER_0_2_27
*1539 FILLER_0_2_277
*1540 FILLER_0_2_289
*1541 FILLER_0_2_29
*1542 FILLER_0_2_3
*1543 FILLER_0_2_301
*1544 FILLER_0_2_307
*1545 FILLER_0_2_309
*1546 FILLER_0_2_321
*1547 FILLER_0_2_333
*1548 FILLER_0_2_345
*1549 FILLER_0_2_41
*1550 FILLER_0_2_53
*1551 FILLER_0_2_65
*1552 FILLER_0_2_77
*1553 FILLER_0_2_83
*1554 FILLER_0_2_85
*1555 FILLER_0_2_97
*1556 FILLER_0_30_131
*1557 FILLER_0_30_141
*1558 FILLER_0_30_15
*1559 FILLER_0_30_174
*1560 FILLER_0_30_19
*1561 FILLER_0_30_191
*1562 FILLER_0_30_195
*1563 FILLER_0_30_209
*1564 FILLER_0_30_226
*1565 FILLER_0_30_245
*1566 FILLER_0_30_251
*1567 FILLER_0_30_253
*1568 FILLER_0_30_276
*1569 FILLER_0_30_3
*1570 FILLER_0_30_302
*1571 FILLER_0_30_309
*1572 FILLER_0_30_328
*1573 FILLER_0_30_334
*1574 FILLER_0_30_347
*1575 FILLER_0_30_53
*1576 FILLER_0_30_65
*1577 FILLER_0_30_85
*1578 FILLER_0_30_96
*1579 FILLER_0_31_105
*1580 FILLER_0_31_111
*1581 FILLER_0_31_113
*1582 FILLER_0_31_121
*1583 FILLER_0_31_129
*1584 FILLER_0_31_144
*1585 FILLER_0_31_156
*1586 FILLER_0_31_169
*1587 FILLER_0_31_181
*1588 FILLER_0_31_19
*1589 FILLER_0_31_190
*1590 FILLER_0_31_199
*1591 FILLER_0_31_210
*1592 FILLER_0_31_222
*1593 FILLER_0_31_234
*1594 FILLER_0_31_246
*1595 FILLER_0_31_264
*1596 FILLER_0_31_272
*1597 FILLER_0_31_288
*1598 FILLER_0_31_302
*1599 FILLER_0_31_31
*1600 FILLER_0_31_314
*1601 FILLER_0_31_318
*1602 FILLER_0_31_327
*1603 FILLER_0_31_335
*1604 FILLER_0_31_349
*1605 FILLER_0_31_57
*1606 FILLER_0_31_69
*1607 FILLER_0_31_78
*1608 FILLER_0_31_90
*1609 FILLER_0_31_98
*1610 FILLER_0_32_102
*1611 FILLER_0_32_107
*1612 FILLER_0_32_11
*1613 FILLER_0_32_126
*1614 FILLER_0_32_130
*1615 FILLER_0_32_166
*1616 FILLER_0_32_174
*1617 FILLER_0_32_180