*SPEF "ieee 1481-1999"
*DESIGN "tt_um_dlmiles_tt05_i2c_bert"
*DATE "11:11:11 Fri 11 11, 1111"
*VENDOR "OpenRCX"
*PROGRAM "Parallel Extraction"
*VERSION "1.0"
*DESIGN_FLOW "NAME_SCOPE LOCAL" "PIN_CAP NONE"
*DIVIDER /
*DELIMITER :
*BUS_DELIMITER []
*T_UNIT 1 NS
*C_UNIT 1 PF
*R_UNIT 1 OHM
*L_UNIT 1 HENRY

*NAME_MAP
*3 clk
*4 ena
*5 rst_n
*6 ui_in[0]
*7 ui_in[1]
*8 ui_in[2]
*9 ui_in[3]
*10 ui_in[4]
*11 ui_in[5]
*12 ui_in[6]
*13 ui_in[7]
*14 uio_in[0]
*15 uio_in[1]
*16 uio_in[2]
*17 uio_in[3]
*18 uio_in[4]
*19 uio_in[5]
*20 uio_in[6]
*21 uio_in[7]
*22 net27
*23 net28
*24 uio_oe[2]
*25 uio_oe[3]
*26 net29
*27 net30
*28 net31
*29 net38
*30 net32
*31 net33
*32 uio_out[2]
*33 uio_out[3]
*34 net34
*35 net35
*36 net36
*37 uio_out[7]
*38 uo_out[0]
*39 uo_out[1]
*40 uo_out[2]
*41 uo_out[3]
*42 uo_out[4]
*43 uo_out[5]
*44 uo_out[6]
*45 uo_out[7]
*46 _0000_
*47 _0001_
*48 _0002_
*49 _0003_
*50 _0004_
*51 _0005_
*52 _0006_
*53 _0007_
*54 _0008_
*55 _0009_
*56 _0010_
*57 _0011_
*58 _0012_
*59 _0013_
*60 _0014_
*61 _0015_
*62 _0016_
*63 _0017_
*64 _0018_
*65 _0019_
*66 _0020_
*67 _0021_
*68 _0022_
*69 _0023_
*70 _0024_
*71 _0025_
*72 _0026_
*73 _0027_
*74 _0028_
*75 _0029_
*76 _0030_
*77 _0031_
*78 _0032_
*79 _0033_
*80 _0034_
*81 _0035_
*82 _0036_
*83 _0037_
*84 _0038_
*85 _0039_
*86 _0040_
*87 _0041_
*88 _0042_
*89 _0043_
*90 _0044_
*91 _0045_
*92 _0046_
*93 _0047_
*94 _0048_
*95 _0049_
*96 _0050_
*97 _0051_
*98 _0052_
*99 _0053_
*100 _0054_
*101 _0055_
*102 _0056_
*103 _0057_
*104 _0058_
*105 _0059_
*106 _0060_
*107 _0061_
*108 _0062_
*109 _0063_
*110 _0064_
*111 _0065_
*112 _0066_
*113 _0067_
*114 _0068_
*115 _0069_
*116 _0070_
*117 _0071_
*118 _0072_
*119 _0073_
*120 _0074_
*121 _0075_
*122 _0076_
*123 _0077_
*124 _0078_
*125 _0079_
*126 _0080_
*127 _0081_
*128 _0082_
*129 _0083_
*130 _0084_
*131 _0085_
*132 _0086_
*133 _0087_
*134 _0088_
*135 _0089_
*136 _0090_
*137 _0091_
*138 _0092_
*139 _0093_
*140 _0094_
*141 _0095_
*142 _0096_
*143 _0097_
*144 _0098_
*145 _0099_
*146 _0100_
*147 _0101_
*148 _0102_
*149 _0103_
*150 _0104_
*151 _0105_
*152 _0106_
*153 _0107_
*154 _0108_
*155 _0109_
*156 _0110_
*157 _0111_
*158 _0112_
*159 _0113_
*160 _0114_
*161 _0115_
*162 _0116_
*163 _0117_
*164 _0118_
*165 _0119_
*166 _0120_
*167 _0121_
*168 _0122_
*169 _0123_
*170 _0124_
*171 _0125_
*172 _0126_
*173 _0127_
*174 _0128_
*175 _0129_
*176 _0130_
*177 _0131_
*178 _0132_
*179 _0133_
*180 _0134_
*181 _0135_
*182 _0136_
*183 _0137_
*184 _0138_
*185 _0139_
*186 _0140_
*187 _0141_
*188 _0142_
*189 _0143_
*190 _0144_
*191 _0145_
*192 _0146_
*193 _0147_
*194 _0148_
*195 _0149_
*196 _0150_
*197 _0151_
*198 _0152_
*199 _0153_
*200 _0154_
*201 _0155_
*202 _0156_
*203 _0157_
*204 _0158_
*205 _0159_
*206 _0160_
*207 _0161_
*208 _0162_
*209 _0163_
*210 _0164_
*211 _0165_
*212 _0166_
*213 _0167_
*214 _0168_
*215 _0169_
*216 _0170_
*217 _0171_
*218 _0172_
*219 _0173_
*220 _0174_
*221 _0175_
*222 _0176_
*223 _0177_
*224 _0178_
*225 _0179_
*226 _0180_
*227 _0181_
*228 _0182_
*229 _0183_
*230 _0184_
*231 _0185_
*232 _0186_
*233 _0187_
*234 _0188_
*235 _0189_
*236 _0190_
*237 _0191_
*238 _0192_
*239 _0193_
*240 _0194_
*241 _0195_
*242 _0196_
*243 _0197_
*244 _0198_
*245 _0199_
*246 _0200_
*247 _0201_
*248 _0202_
*249 _0203_
*250 _0204_
*251 _0205_
*252 _0206_
*253 _0207_
*254 _0208_
*255 _0209_
*256 _0210_
*257 _0211_
*258 _0212_
*259 _0213_
*260 _0214_
*261 _0215_
*262 _0216_
*263 _0217_
*264 _0218_
*265 _0219_
*266 _0220_
*267 _0221_
*268 _0222_
*269 _0223_
*270 _0224_
*271 _0225_
*272 _0226_
*273 _0227_
*274 _0228_
*275 _0229_
*276 _0230_
*277 _0231_
*278 _0232_
*279 _0233_
*280 _0234_
*281 _0235_
*282 _0236_
*283 _0237_
*284 _0238_
*285 _0239_
*286 _0240_
*287 _0241_
*288 _0242_
*289 _0243_
*290 _0244_
*291 _0245_
*292 _0246_
*293 _0247_
*294 _0248_
*295 _0249_
*296 _0250_
*297 _0251_
*298 _0252_
*299 _0253_
*300 _0254_
*301 _0255_
*302 _0256_
*303 _0257_
*304 _0258_
*305 _0259_
*306 _0260_
*307 _0261_
*308 _0262_
*309 _0263_
*310 _0264_
*311 _0265_
*312 _0266_
*313 _0267_
*314 _0268_
*315 _0269_
*316 _0270_
*317 _0271_
*318 _0272_
*319 _0273_
*320 _0274_
*321 _0275_
*322 _0276_
*323 _0277_
*324 _0278_
*325 _0279_
*326 _0280_
*327 _0281_
*328 _0282_
*329 _0283_
*330 _0284_
*331 _0285_
*332 _0286_
*333 _0287_
*334 _0288_
*335 _0289_
*336 _0290_
*337 _0291_
*338 _0292_
*339 _0293_
*340 _0294_
*341 _0295_
*342 _0296_
*343 _0297_
*344 _0298_
*345 _0299_
*346 _0300_
*347 _0301_
*348 _0302_
*349 _0303_
*350 _0304_
*351 _0305_
*352 _0306_
*353 _0307_
*354 _0308_
*355 _0309_
*356 _0310_
*357 _0311_
*358 _0312_
*359 _0313_
*360 _0314_
*361 _0315_
*362 _0316_
*363 _0317_
*364 _0318_
*365 _0319_
*366 _0320_
*367 _0321_
*368 _0322_
*369 _0323_
*370 _0324_
*371 _0325_
*372 _0326_
*373 _0327_
*374 _0328_
*375 _0329_
*376 _0330_
*377 _0331_
*378 _0332_
*379 _0333_
*380 _0334_
*381 _0335_
*382 _0336_
*383 _0337_
*384 _0338_
*385 _0339_
*386 _0340_
*387 _0341_
*388 _0342_
*389 _0343_
*390 _0344_
*391 _0345_
*392 _0346_
*393 _0347_
*394 _0348_
*395 _0349_
*396 _0350_
*397 _0351_
*398 _0352_
*399 _0353_
*400 _0354_
*401 _0355_
*402 _0356_
*403 _0357_
*404 _0358_
*405 _0359_
*406 _0360_
*407 _0361_
*408 _0362_
*409 _0363_
*410 _0364_
*411 _0365_
*412 _0366_
*413 _0367_
*414 _0368_
*415 _0369_
*416 _0370_
*417 _0371_
*418 _0372_
*419 _0373_
*420 _0374_
*421 _0375_
*422 _0376_
*423 _0377_
*424 _0378_
*425 _0379_
*426 _0380_
*427 _0381_
*428 _0382_
*429 _0383_
*430 _0384_
*431 _0385_
*432 _0386_
*433 _0387_
*434 _0388_
*435 _0389_
*436 _0390_
*437 _0391_
*438 _0392_
*439 _0393_
*440 _0394_
*441 _0395_
*442 _0396_
*443 _0397_
*444 _0398_
*445 _0399_
*446 _0400_
*447 _0401_
*448 _0402_
*449 _0403_
*450 _0404_
*451 _0405_
*452 _0406_
*453 _0407_
*454 _0408_
*455 _0409_
*456 _0410_
*457 _0411_
*458 _0412_
*459 _0413_
*460 _0414_
*461 _0415_
*462 _0416_
*463 _0417_
*464 _0418_
*465 _0419_
*466 _0420_
*467 _0421_
*468 _0422_
*469 _0423_
*470 _0424_
*471 _0425_
*472 _0426_
*473 _0427_
*474 _0428_
*475 _0429_
*476 _0430_
*477 _0431_
*478 _0432_
*479 _0433_
*480 _0434_
*481 _0435_
*482 _0436_
*483 _0437_
*484 _0438_
*485 _0439_
*486 _0440_
*487 _0441_
*488 _0442_
*489 _0443_
*490 _0444_
*491 _0445_
*492 _0446_
*493 _0447_
*494 _0448_
*495 _0449_
*496 _0450_
*497 _0451_
*498 _0452_
*499 _0453_
*500 _0454_
*501 _0455_
*502 _0456_
*503 _0457_
*504 _0458_
*505 _0459_
*506 _0460_
*507 _0461_
*508 _0462_
*509 _0463_
*510 _0464_
*511 _0465_
*512 _0466_
*513 _0467_
*514 _0468_
*515 _0469_
*516 _0470_
*517 _0471_
*518 _0472_
*519 _0473_
*520 _0474_
*521 _0475_
*522 _0476_
*523 _0477_
*524 _0478_
*525 _0479_
*526 _0480_
*527 _0481_
*528 _0482_
*529 _0483_
*530 _0484_
*531 _0485_
*532 _0486_
*533 _0487_
*534 _0488_
*535 _0489_
*536 _0490_
*537 _0491_
*538 _0492_
*539 _0493_
*540 _0494_
*541 _0495_
*542 _0496_
*543 _0497_
*544 _0498_
*545 _0499_
*546 _0500_
*547 _0501_
*548 _0502_
*549 _0503_
*550 _0504_
*551 _0505_
*552 _0506_
*553 _0507_
*554 _0508_
*555 _0509_
*556 _0510_
*557 _0511_
*558 _0512_
*559 _0513_
*560 _0514_
*561 _0515_
*562 _0516_
*563 _0517_
*564 _0518_
*565 _0519_
*566 _0520_
*567 _0521_
*568 _0522_
*569 _0523_
*570 _0524_
*571 _0525_
*572 _0526_
*573 _0527_
*574 _0528_
*575 _0529_
*576 _0530_
*577 _0531_
*578 _0532_
*579 _0533_
*580 _0534_
*581 _0535_
*582 _0536_
*583 _0537_
*584 _0538_
*585 _0539_
*586 _0540_
*587 _0541_
*588 _0542_
*589 _0543_
*590 _0544_
*591 _0545_
*592 _0546_
*593 _0547_
*594 _0548_
*595 _0549_
*596 _0550_
*597 _0551_
*598 _0552_
*599 _0553_
*600 _0554_
*601 _0555_
*602 _0556_
*603 _0557_
*604 _0558_
*605 _0559_
*606 _0560_
*607 _0561_
*608 _0562_
*609 _0563_
*610 _0564_
*611 _0565_
*612 _0566_
*613 _0567_
*614 _0568_
*615 _0569_
*616 _0570_
*617 _0571_
*618 _0572_
*619 _0573_
*620 _0574_
*621 _0575_
*622 _0576_
*623 _0577_
*624 _0578_
*625 _0579_
*626 _0580_
*627 _0581_
*628 _0582_
*629 _0583_
*630 _0584_
*631 _0585_
*632 _0586_
*633 _0587_
*634 _0588_
*635 _0589_
*636 _0590_
*637 _0591_
*638 _0592_
*639 _0593_
*640 _0594_
*641 _0595_
*642 _0596_
*643 _0597_
*644 _0598_
*645 _0599_
*646 _0600_
*647 _0601_
*648 _0602_
*649 _0603_
*650 _0604_
*651 _0605_
*652 _0606_
*653 _0607_
*654 _0608_
*655 _0609_
*656 _0610_
*657 _0611_
*658 _0612_
*659 _0613_
*660 _0614_
*661 _0615_
*662 _0616_
*663 _0617_
*664 _0618_
*665 _0619_
*666 _0620_
*667 _0621_
*668 _0622_
*669 _0623_
*670 _0624_
*671 _0625_
*672 _0626_
*673 _0627_
*674 _0628_
*675 _0629_
*676 _0630_
*677 _0631_
*678 _0632_
*679 _0633_
*680 _0634_
*681 _0635_
*682 _0636_
*683 _0637_
*684 _0638_
*685 _0639_
*686 _0640_
*687 _0641_
*688 _0642_
*689 _0643_
*690 _0644_
*691 _0645_
*692 _0646_
*693 _0647_
*694 _0648_
*695 _0649_
*696 _0650_
*697 _0651_
*698 _0652_
*699 _0653_
*700 _0654_
*701 _0655_
*702 _0656_
*703 _0657_
*704 _0658_
*705 _0659_
*706 _0660_
*707 _0661_
*708 _0662_
*709 _0663_
*710 _0664_
*711 _0665_
*712 _0666_
*713 _0667_
*714 _0668_
*715 _0669_
*716 _0670_
*717 _0671_
*718 _0672_
*719 _0673_
*720 _0674_
*721 _0675_
*722 _0676_
*723 _0677_
*724 _0678_
*725 _0679_
*726 _0680_
*727 _0681_
*728 _0682_
*729 _0683_
*730 _0684_
*731 _0685_
*732 _0686_
*733 _0687_
*734 _0688_
*735 _0689_
*736 _0690_
*737 _0691_
*738 _0692_
*739 _0693_
*740 _0694_
*741 _0695_
*742 _0696_
*743 _0697_
*744 _0698_
*745 _0699_
*746 _0700_
*747 _0701_
*748 _0702_
*749 _0703_
*750 _0704_
*751 _0705_
*752 _0706_
*753 _0707_
*754 _0708_
*755 _0709_
*756 _0710_
*757 _0711_
*758 _0712_
*759 _0713_
*760 _0714_
*761 _0715_
*762 _0716_
*763 _0717_
*764 _0718_
*765 _0719_
*766 _0720_
*767 _0721_
*768 _0722_
*769 _0723_
*770 _0724_
*771 _0725_
*772 _0726_
*773 _0727_
*774 _0728_
*775 _0729_
*776 _0730_
*777 _0731_
*778 _0732_
*779 _0733_
*780 _0734_
*781 _0735_
*782 _0736_
*783 _0737_
*784 _0738_
*785 _0739_
*786 _0740_
*787 _0741_
*788 _0742_
*789 _0743_
*790 _0744_
*791 _0745_
*792 _0746_
*793 _0747_
*794 _0748_
*795 _0749_
*796 _0750_
*797 _0751_
*798 _0752_
*799 _0753_
*800 _0754_
*801 _0755_
*802 _0756_
*803 _0757_
*804 _0758_
*805 _0759_
*806 _0760_
*807 _0761_
*808 _0762_
*809 _0763_
*810 _0764_
*811 _0765_
*812 _0766_
*813 _0767_
*814 _0768_
*815 _0769_
*816 _0770_
*817 _0771_
*818 _0772_
*819 clknet_0_clk
*820 clknet_4_0_0_clk
*821 clknet_4_10_0_clk
*822 clknet_4_11_0_clk
*823 clknet_4_12_0_clk
*824 clknet_4_13_0_clk
*825 clknet_4_14_0_clk
*826 clknet_4_15_0_clk
*827 clknet_4_1_0_clk
*828 clknet_4_2_0_clk
*829 clknet_4_3_0_clk
*830 clknet_4_4_0_clk
*831 clknet_4_5_0_clk
*832 clknet_4_6_0_clk
*833 clknet_4_7_0_clk
*834 clknet_4_8_0_clk
*835 clknet_4_9_0_clk
*836 i2c_bert\.div12\[0\]
*837 i2c_bert\.div12\[10\]
*838 i2c_bert\.div12\[11\]
*839 i2c_bert\.div12\[1\]
*840 i2c_bert\.div12\[2\]
*841 i2c_bert\.div12\[3\]
*842 i2c_bert\.div12\[4\]
*843 i2c_bert\.div12\[5\]
*844 i2c_bert\.div12\[6\]
*845 i2c_bert\.div12\[7\]
*846 i2c_bert\.div12\[8\]
*847 i2c_bert\.div12\[9\]
*848 i2c_bert\.i2c\.clockGate\.sel
*849 i2c_bert\.i2c\.fsm_bitCount\[0\]
*850 i2c_bert\.i2c\.fsm_bitCount\[1\]
*851 i2c_bert\.i2c\.fsm_bitCount\[2\]
*852 i2c_bert\.i2c\.fsm_stateReg\[0\]
*853 i2c_bert\.i2c\.fsm_stateReg\[1\]
*854 i2c_bert\.i2c\.fsm_stateReg\[2\]
*855 i2c_bert\.i2c\.fsm_stateReg\[3\]
*856 i2c_bert\.i2c\.fsm_wantStart
*857 i2c_bert\.i2c\.io_bus_sclOe
*858 i2c_bert\.i2c\.io_bus_sdaOe
*859 i2c_bert\.i2c\.io_bus_sdaOut
*860 i2c_bert\.i2c\.io_canStretch
*861 i2c_bert\.i2c\.io_data8rx\[0\]
*862 i2c_bert\.i2c\.io_data8rx\[1\]
*863 i2c_bert\.i2c\.io_data8rx\[2\]
*864 i2c_bert\.i2c\.io_data8rx\[3\]
*865 i2c_bert\.i2c\.io_data8rx\[4\]
*866 i2c_bert\.i2c\.io_data8rx\[5\]
*867 i2c_bert\.i2c\.io_data8rx\[6\]
*868 i2c_bert\.i2c\.io_data8rx\[7\]
*869 i2c_bert\.i2c\.io_pushPullMode
*870 i2c_bert\.i2c\.io_sclMode\[1\]
*871 i2c_bert\.i2c\.io_sclMode\[2\]
*872 i2c_bert\.i2c\.io_sdaSignal
*873 i2c_bert\.i2c\.io_timerAutobaud
*874 i2c_bert\.i2c\.io_wantReset
*875 i2c_bert\.i2c\.rst_n
*876 i2c_bert\.i2c\.scl
*877 i2c_bert\.i2c\.sclAndNor3\.io_b
*878 i2c_bert\.i2c\.sclAndNor3\.io_c
*879 i2c_bert\.i2c\.sclAndNor3\.io_o
*880 i2c_bert\.i2c\.sclAndNor5\.io_d
*881 i2c_bert\.i2c\.sclAndNor5\.io_e
*882 i2c_bert\.i2c\.sclAndNor5\.io_o
*883 i2c_bert\.i2c\.sclMaj3\.X
*884 i2c_bert\.i2c\.sclMaj5\.maj3de\.A
*885 i2c_bert\.i2c\.sclMaj5\.maj3de\.X
*886 i2c_bert\.i2c\.scl_regNext
*887 i2c_bert\.i2c\.sdaAndNor3\.io_b
*888 i2c_bert\.i2c\.sdaAndNor3\.io_c
*889 i2c_bert\.i2c\.sdaAndNor3\.io_o
*890 i2c_bert\.i2c\.sdaAndNor5\.io_d
*891 i2c_bert\.i2c\.sdaAndNor5\.io_e
*892 i2c_bert\.i2c\.sdaAndNor5\.io_o
*893 i2c_bert\.i2c\.sdaMaj3\.X
*894 i2c_bert\.i2c\.sdaMaj5\.maj3de\.A
*895 i2c_bert\.i2c\.sdaMaj5\.maj3de\.X
*896 i2c_bert\.i2c\.sda_regNext
*897 i2c_bert\.latched\[16\]
*898 i2c_bert\.latched\[17\]
*899 i2c_bert\.latched\[18\]
*900 i2c_bert\.latched\[19\]
*901 i2c_bert\.latched\[20\]
*902 i2c_bert\.latched\[21\]
*903 i2c_bert\.latched\[22\]
*904 i2c_bert\.latched\[23\]
*905 i2c_bert\.latched\[24\]
*906 i2c_bert\.latched\[25\]
*907 i2c_bert\.latched\[26\]
*908 i2c_bert\.latched\[27\]
*909 i2c_bert\.latched\[28\]
*910 i2c_bert\.latched\[29\]
*911 i2c_bert\.latched\[30\]
*912 i2c_bert\.latched\[31\]
*913 i2c_bert\.myState_1\._zz__zz_io_data8tx\[0\]
*914 i2c_bert\.myState_1\._zz__zz_io_data8tx\[1\]
*915 i2c_bert\.myState_1\._zz__zz_io_data8tx\[2\]
*916 i2c_bert\.myState_1\._zz__zz_io_data8tx\[3\]
*917 i2c_bert\.myState_1\.alu_1\.acc\[0\]
*918 i2c_bert\.myState_1\.alu_1\.acc\[1\]
*919 i2c_bert\.myState_1\.alu_1\.acc\[2\]
*920 i2c_bert\.myState_1\.alu_1\.acc\[3\]
*921 i2c_bert\.myState_1\.alu_1\.acc\[4\]
*922 i2c_bert\.myState_1\.alu_1\.acc\[5\]
*923 i2c_bert\.myState_1\.alu_1\.acc\[6\]
*924 i2c_bert\.myState_1\.alu_1\.acc\[7\]
*925 i2c_bert\.myState_1\.alu_1\.io_op\[0\]
*926 i2c_bert\.myState_1\.alu_1\.io_op\[1\]
*927 i2c_bert\.myState_1\.cmd7\[0\]
*928 i2c_bert\.myState_1\.cmd7\[3\]
*929 i2c_bert\.myState_1\.cmd7\[4\]
*930 i2c_bert\.myState_1\.cmd7\[5\]
*931 i2c_bert\.myState_1\.cmd7\[6\]
*932 i2c_bert\.myState_1\.counter\[0\]
*933 i2c_bert\.myState_1\.counter\[10\]
*934 i2c_bert\.myState_1\.counter\[11\]
*935 i2c_bert\.myState_1\.counter\[1\]
*936 i2c_bert\.myState_1\.counter\[2\]
*937 i2c_bert\.myState_1\.counter\[3\]
*938 i2c_bert\.myState_1\.counter\[4\]
*939 i2c_bert\.myState_1\.counter\[5\]
*940 i2c_bert\.myState_1\.counter\[6\]
*941 i2c_bert\.myState_1\.counter\[7\]
*942 i2c_bert\.myState_1\.counter\[8\]
*943 i2c_bert\.myState_1\.counter\[9\]
*944 i2c_bert\.myState_1\.fsmPhase_stateReg\[1\]
*945 i2c_bert\.myState_1\.fsmPhase_stateReg\[2\]
*946 i2c_bert\.myState_1\.fsmPhase_stateReg\[3\]
*947 i2c_bert\.myState_1\.fsmPhase_stateReg\[5\]
*948 i2c_bert\.myState_1\.io_timerEndstop\[0\]
*949 i2c_bert\.myState_1\.io_timerEndstop\[1\]
*950 i2c_bert\.myState_1\.io_timerEndstop\[2\]
*951 i2c_bert\.myState_1\.io_timerEndstop\[3\]
*952 i2c_bert\.myState_1\.io_timerEndstop\[4\]
*953 i2c_bert\.myState_1\.io_timerEndstop\[5\]
*954 i2c_bert\.myState_1\.io_timerEndstop\[6\]
*955 i2c_bert\.myState_1\.io_timerEndstop\[7\]
*956 i2c_bert\.myState_1\.len12\[10\]
*957 i2c_bert\.myState_1\.len12\[11\]
*958 i2c_bert\.myState_1\.len12\[4\]
*959 i2c_bert\.myState_1\.len12\[5\]
*960 i2c_bert\.myState_1\.len12\[6\]
*961 i2c_bert\.myState_1\.len12\[7\]
*962 i2c_bert\.myState_1\.len12\[8\]
*963 i2c_bert\.myState_1\.len12\[9\]
*964 i2c_bert\.myState_1\.readWriteBit
*965 i2c_bert\.powerOnSense\.D
*966 i2c_bert\.powerOnSense\.GATE
*967 i2c_bert\.powerOnSense\.Q
*968 i2c_bert\.powerOnSenseCaptured\.GATE
*969 i2c_bert\.powerOnSenseCaptured\.Q
*970 i2c_bert\.timer_1\.ticker_count\[0\]
*971 i2c_bert\.timer_1\.ticker_count\[10\]
*972 i2c_bert\.timer_1\.ticker_count\[11\]
*973 i2c_bert\.timer_1\.ticker_count\[1\]
*974 i2c_bert\.timer_1\.ticker_count\[2\]
*975 i2c_bert\.timer_1\.ticker_count\[3\]
*976 i2c_bert\.timer_1\.ticker_count\[4\]
*977 i2c_bert\.timer_1\.ticker_count\[5\]
*978 i2c_bert\.timer_1\.ticker_count\[6\]
*979 i2c_bert\.timer_1\.ticker_count\[7\]
*980 i2c_bert\.timer_1\.ticker_count\[8\]
*981 i2c_bert\.timer_1\.ticker_count\[9\]
*982 i2c_bert\.timer_1\.ticker_endstopTmpL\[0\]
*983 i2c_bert\.timer_1\.ticker_endstopTmpL\[1\]
*984 i2c_bert\.timer_1\.ticker_endstopTmpL\[2\]
*985 i2c_bert\.timer_1\.ticker_endstopTmpL\[3\]
*986 i2c_bert\.timer_1\.ticker_endstopTmpL\[4\]
*987 i2c_bert\.timer_1\.ticker_endstopTmpL\[5\]
*988 i2c_bert\.timer_1\.ticker_endstopTmpL\[6\]
*989 i2c_bert\.timer_1\.ticker_endstopTmpL\[7\]
*990 i2c_bert\.timer_1\.ticker_timerSampleTickState
*991 i2c_bert\.timer_1\.ticker_timerSampleTickState_regNext
*992 net1
*993 net10
*994 net11
*995 net12
*996 net13
*997 net14
*998 net15
*999 net16
*1000 net17
*1001 net18
*1002 net19
*1003 net2
*1004 net20
*1005 net21
*1006 net22
*1007 net23
*1008 net24
*1009 net25
*1010 net26
*1011 net3
*1012 net37
*1013 net39
*1014 net4
*1015 net40
*1016 net41
*1017 net42
*1018 net43
*1019 net44
*1020 net45
*1021 net46
*1022 net47
*1023 net48
*1024 net49
*1025 net5
*1026 net50
*1027 net51
*1028 net52
*1029 net53
*1030 net54
*1031 net55
*1032 net56
*1033 net57
*1034 net58
*1035 net59
*1036 net6
*1037 net60
*1038 net61
*1039 net62
*1040 net63
*1041 net64
*1042 net65
*1043 net66
*1044 net67
*1045 net68
*1046 net69
*1047 net7
*1048 net70
*1049 net71
*1050 net72
*1051 net73
*1052 net74
*1053 net75
*1054 net76
*1055 net77
*1056 net78
*1057 net79
*1058 net8
*1059 net80
*1060 net81
*1061 net82
*1062 net83
*1063 net84
*1064 net85
*1065 net86
*1066 net87
*1067 net88
*1068 net89
*1069 net9
*1070 FILLER_0_0_109
*1071 FILLER_0_0_130
*1072 FILLER_0_0_138
*1073 FILLER_0_0_141
*1074 FILLER_0_0_15
*1075 FILLER_0_0_156
*1076 FILLER_0_0_185
*1077 FILLER_0_0_193
*1078 FILLER_0_0_197
*1079 FILLER_0_0_205
*1080 FILLER_0_0_214
*1081 FILLER_0_0_222
*1082 FILLER_0_0_225
*1083 FILLER_0_0_243
*1084 FILLER_0_0_251
*1085 FILLER_0_0_253
*1086 FILLER_0_0_265
*1087 FILLER_0_0_27
*1088 FILLER_0_0_277
*1089 FILLER_0_0_281
*1090 FILLER_0_0_29
*1091 FILLER_0_0_293
*1092 FILLER_0_0_3
*1093 FILLER_0_0_305
*1094 FILLER_0_0_309
*1095 FILLER_0_0_321
*1096 FILLER_0_0_333
*1097 FILLER_0_0_337
*1098 FILLER_0_0_349
*1099 FILLER_0_0_41
*1100 FILLER_0_0_53
*1101 FILLER_0_0_57
*1102 FILLER_0_0_69
*1103 FILLER_0_0_81
*1104 FILLER_0_0_85
*1105 FILLER_0_0_97
*1106 FILLER_0_10_113
*1107 FILLER_0_10_117
*1108 FILLER_0_10_131
*1109 FILLER_0_10_157
*1110 FILLER_0_10_167
*1111 FILLER_0_10_175
*1112 FILLER_0_10_180
*1113 FILLER_0_10_194
*1114 FILLER_0_10_200
*1115 FILLER_0_10_204
*1116 FILLER_0_10_211
*1117 FILLER_0_10_238
*1118 FILLER_0_10_25
*1119 FILLER_0_10_250
*1120 FILLER_0_10_256
*1121 FILLER_0_10_266
*1122 FILLER_0_10_285
*1123 FILLER_0_10_29
*1124 FILLER_0_10_297
*1125 FILLER_0_10_3
*1126 FILLER_0_10_305
*1127 FILLER_0_10_314
*1128 FILLER_0_10_326
*1129 FILLER_0_10_332
*1130 FILLER_0_10_349
*1131 FILLER_0_10_36
*1132 FILLER_0_10_49
*1133 FILLER_0_10_57
*1134 FILLER_0_10_76
*1135 FILLER_0_10_90
*1136 FILLER_0_11_100
*1137 FILLER_0_11_11
*1138 FILLER_0_11_133
*1139 FILLER_0_11_145
*1140 FILLER_0_11_15
*1141 FILLER_0_11_157
*1142 FILLER_0_11_163
*1143 FILLER_0_11_167
*1144 FILLER_0_11_169
*1145 FILLER_0_11_181
*1146 FILLER_0_11_197
*1147 FILLER_0_11_201
*1148 FILLER_0_11_208
*1149 FILLER_0_11_220
*1150 FILLER_0_11_225
*1151 FILLER_0_11_235
*1152 FILLER_0_11_247
*1153 FILLER_0_11_255
*1154 FILLER_0_11_267
*1155 FILLER_0_11_278
*1156 FILLER_0_11_281
*1157 FILLER_0_11_3
*1158 FILLER_0_11_303
*1159 FILLER_0_11_313
*1160 FILLER_0_11_321
*1161 FILLER_0_11_330
*1162 FILLER_0_11_337
*1163 FILLER_0_11_346
*1164 FILLER_0_11_350
*1165 FILLER_0_11_43
*1166 FILLER_0_11_47
*1167 FILLER_0_11_53
*1168 FILLER_0_11_57
*1169 FILLER_0_11_62
*1170 FILLER_0_11_7
*1171 FILLER_0_11_74
*1172 FILLER_0_11_80
*1173 FILLER_0_11_88
*1174 FILLER_0_12_102
*1175 FILLER_0_12_121
*1176 FILLER_0_12_133
*1177 FILLER_0_12_138
*1178 FILLER_0_12_148
*1179 FILLER_0_12_180
*1180 FILLER_0_12_192
*1181 FILLER_0_12_197
*1182 FILLER_0_12_21
*1183 FILLER_0_12_222
*1184 FILLER_0_12_228
*1185 FILLER_0_12_240
*1186 FILLER_0_12_260
*1187 FILLER_0_12_27
*1188 FILLER_0_12_273
*1189 FILLER_0_12_279
*1190 FILLER_0_12_287
*1191 FILLER_0_12_295
*1192 FILLER_0_12_3
*1193 FILLER_0_12_300
*1194 FILLER_0_12_309
*1195 FILLER_0_12_333
*1196 FILLER_0_12_59
*1197 FILLER_0_12_72
*1198 FILLER_0_12_76
*1199 FILLER_0_12_85
*1200 FILLER_0_13_100
*1201 FILLER_0_13_106
*1202 FILLER_0_13_113
*1203 FILLER_0_13_127
*1204 FILLER_0_13_136
*1205 FILLER_0_13_148
*1206 FILLER_0_13_155
*1207 FILLER_0_13_167
*1208 FILLER_0_13_169
*1209 FILLER_0_13_177
*1210 FILLER_0_13_198
*1211 FILLER_0_13_214
*1212 FILLER_0_13_218
*1213 FILLER_0_13_22
*1214 FILLER_0_13_244
*1215 FILLER_0_13_263
*1216 FILLER_0_13_275
*1217 FILLER_0_13_279
*1218 FILLER_0_13_288
*1219 FILLER_0_13_3
*1220 FILLER_0_13_334
*1221 FILLER_0_13_34
*1222 FILLER_0_13_340
*1223 FILLER_0_13_348
*1224 FILLER_0_13_42
*1225 FILLER_0_13_47
*1226 FILLER_0_13_55
*1227 FILLER_0_13_57
*1228 FILLER_0_13_65
*1229 FILLER_0_13_75
*1230 FILLER_0_13_81
*1231 FILLER_0_13_85
*1232 FILLER_0_13_96
*1233 FILLER_0_14_11
*1234 FILLER_0_14_112
*1235 FILLER_0_14_122
*1236 FILLER_0_14_136
*1237 FILLER_0_14_147
*1238 FILLER_0_14_164
*1239 FILLER_0_14_172
*1240 FILLER_0_14_183
*1241 FILLER_0_14_195
*1242 FILLER_0_14_202
*1243 FILLER_0_14_210
*1244 FILLER_0_14_214
*1245 FILLER_0_14_225
*1246 FILLER_0_14_23
*1247 FILLER_0_14_233
*1248 FILLER_0_14_243
*1249 FILLER_0_14_251
*1250 FILLER_0_14_259
*1251 FILLER_0_14_27
*1252 FILLER_0_14_274
*1253 FILLER_0_14_290
*1254 FILLER_0_14_294
*1255 FILLER_0_14_3
*1256 FILLER_0_14_307
*1257 FILLER_0_14_342
*1258 FILLER_0_14_350
*1259 FILLER_0_14_56
*1260 FILLER_0_14_7
*1261 FILLER_0_14_76
*1262 FILLER_0_14_92
*1263 FILLER_0_14_96
*1264 FILLER_0_15_120
*1265 FILLER_0_15_145
*1266 FILLER_0_15_151
*1267 FILLER_0_15_167
*1268 FILLER_0_15_169
*1269 FILLER_0_15_205
*1270 FILLER_0_15_21
*1271 FILLER_0_15_225
*1272 FILLER_0_15_235
*1273 FILLER_0_15_25
*1274 FILLER_0_15_258
*1275 FILLER_0_15_279
*1276 FILLER_0_15_291
*1277 FILLER_0_15_3
*1278 FILLER_0_15_302
*1279 FILLER_0_15_310
*1280 FILLER_0_15_315
*1281 FILLER_0_15_319
*1282 FILLER_0_15_349
*1283 FILLER_0_15_38
*1284 FILLER_0_15_46
*1285 FILLER_0_15_68
*1286 FILLER_0_15_85
*1287 FILLER_0_15_93
*1288 FILLER_0_16_105
*1289 FILLER_0_16_117
*1290 FILLER_0_16_125
*1291 FILLER_0_16_134
*1292 FILLER_0_16_141
*1293 FILLER_0_16_15
*1294 FILLER_0_16_162
*1295 FILLER_0_16_170
*1296 FILLER_0_16_176
*1297 FILLER_0_16_185
*1298 FILLER_0_16_194
*1299 FILLER_0_16_197
*1300 FILLER_0_16_201
*1301 FILLER_0_16_216
*1302 FILLER_0_16_227
*1303 FILLER_0_16_231
*1304 FILLER_0_16_237
*1305 FILLER_0_16_249
*1306 FILLER_0_16_268
*1307 FILLER_0_16_27
*1308 FILLER_0_16_284
*1309 FILLER_0_16_29
*1310 FILLER_0_16_3
*1311 FILLER_0_16_304
*1312 FILLER_0_16_309
*1313 FILLER_0_16_327
*1314 FILLER_0_16_349
*1315 FILLER_0_16_37
*1316 FILLER_0_16_48
*1317 FILLER_0_16_52
*1318 FILLER_0_16_64
*1319 FILLER_0_16_76
*1320 FILLER_0_16_93
*1321 FILLER_0_17_101
*1322 FILLER_0_17_113
*1323 FILLER_0_17_124
*1324 FILLER_0_17_144
*1325 FILLER_0_17_157
*1326 FILLER_0_17_161
*1327 FILLER_0_17_167
*1328 FILLER_0_17_169
*1329 FILLER_0_17_182
*1330 FILLER_0_17_194
*1331 FILLER_0_17_210
*1332 FILLER_0_17_223
*1333 FILLER_0_17_236
*1334 FILLER_0_17_248
*1335 FILLER_0_17_25
*1336 FILLER_0_17_258
*1337 FILLER_0_17_277
*1338 FILLER_0_17_281
*1339 FILLER_0_17_299
*1340 FILLER_0_17_3
*1341 FILLER_0_17_306
*1342 FILLER_0_17_321
*1343 FILLER_0_17_330
*1344 FILLER_0_17_335
*1345 FILLER_0_17_337
*1346 FILLER_0_17_349
*1347 FILLER_0_17_48
*1348 FILLER_0_17_73
*1349 FILLER_0_17_84
*1350 FILLER_0_17_88
*1351 FILLER_0_18_109
*1352 FILLER_0_18_115
*1353 FILLER_0_18_125
*1354 FILLER_0_18_137
*1355 FILLER_0_18_150
*1356 FILLER_0_18_189
*1357 FILLER_0_18_195
*1358 FILLER_0_18_212
*1359 FILLER_0_18_224
*1360 FILLER_0_18_23
*1361 FILLER_0_18_253
*1362 FILLER_0_18_27
*1363 FILLER_0_18_274
*1364 FILLER_0_18_296
*1365 FILLER_0_18_3
*1366 FILLER_0_18_32
*1367 FILLER_0_18_325
*1368 FILLER_0_18_346
*1369 FILLER_0_18_350
*1370 FILLER_0_18_53
*1371 FILLER_0_18_70
*1372 FILLER_0_18_82
*1373 FILLER_0_18_85
*1374 FILLER_0_19_102
*1375 FILLER_0_19_113
*1376 FILLER_0_19_139
*1377 FILLER_0_19_143
*1378 FILLER_0_19_153
*1379 FILLER_0_19_163
*1380 FILLER_0_19_169
*1381 FILLER_0_19_173
*1382 FILLER_0_19_18
*1383 FILLER_0_19_212
*1384 FILLER_0_19_221
*1385 FILLER_0_19_230
*1386 FILLER_0_19_242
*1387 FILLER_0_19_259
*1388 FILLER_0_19_263
*1389 FILLER_0_19_270
*1390 FILLER_0_19_278
*1391 FILLER_0_19_281
*1392 FILLER_0_19_293
*1393 FILLER_0_19_3
*1394 FILLER_0_19_305
*1395 FILLER_0_19_314
*1396 FILLER_0_19_32
*1397 FILLER_0_19_326
*1398 FILLER_0_19_332
*1399 FILLER_0_19_346
*1400 FILLER_0_19_350
*1401 FILLER_0_19_44
*1402 FILLER_0_19_57
*1403 FILLER_0_19_69
*1404 FILLER_0_19_77
*1405 FILLER_0_19_81
*1406 FILLER_0_19_9
*1407 FILLER_0_1_102
*1408 FILLER_0_1_111
*1409 FILLER_0_1_122
*1410 FILLER_0_1_138
*1411 FILLER_0_1_142
*1412 FILLER_0_1_15
*1413 FILLER_0_1_163
*1414 FILLER_0_1_167
*1415 FILLER_0_1_178
*1416 FILLER_0_1_186
*1417 FILLER_0_1_200
*1418 FILLER_0_1_222
*1419 FILLER_0_1_225
*1420 FILLER_0_1_238
*1421 FILLER_0_1_250
*1422 FILLER_0_1_254
*1423 FILLER_0_1_264
*1424 FILLER_0_1_27
*1425 FILLER_0_1_276
*1426 FILLER_0_1_281
*1427 FILLER_0_1_293
*1428 FILLER_0_1_3
*1429 FILLER_0_1_305
*1430 FILLER_0_1_317
*1431 FILLER_0_1_329
*1432 FILLER_0_1_335
*1433 FILLER_0_1_337
*1434 FILLER_0_1_349
*1435 FILLER_0_1_39
*1436 FILLER_0_1_51
*1437 FILLER_0_1_55
*1438 FILLER_0_1_57
*1439 FILLER_0_1_69
*1440 FILLER_0_20_100
*1441 FILLER_0_20_107
*1442 FILLER_0_20_118
*1443 FILLER_0_20_126
*1444 FILLER_0_20_134
*1445 FILLER_0_20_141
*1446 FILLER_0_20_15
*1447 FILLER_0_20_156
*1448 FILLER_0_20_168
*1449 FILLER_0_20_186
*1450 FILLER_0_20_194
*1451 FILLER_0_20_197
*1452 FILLER_0_20_209
*1453 FILLER_0_20_219
*1454 FILLER_0_20_238
*1455 FILLER_0_20_244
*1456 FILLER_0_20_248
*1457 FILLER_0_20_270
*1458 FILLER_0_20_282
*1459 FILLER_0_20_296
*1460 FILLER_0_20_3
*1461 FILLER_0_20_305
*1462 FILLER_0_20_309
*1463 FILLER_0_20_318
*1464 FILLER_0_20_330
*1465 FILLER_0_20_334
*1466 FILLER_0_20_49
*1467 FILLER_0_20_57
*1468 FILLER_0_20_75
*1469 FILLER_0_20_83
*1470 FILLER_0_20_88
*1471 FILLER_0_20_94
*1472 FILLER_0_21_100
*1473 FILLER_0_21_169
*1474 FILLER_0_21_186
*1475 FILLER_0_21_194
*1476 FILLER_0_21_220
*1477 FILLER_0_21_225
*1478 FILLER_0_21_235
*1479 FILLER_0_21_247
*1480 FILLER_0_21_27
*1481 FILLER_0_21_281
*1482 FILLER_0_21_303
*1483 FILLER_0_21_67
*1484 FILLER_0_21_78
*1485 FILLER_0_21_86
*1486 FILLER_0_22_115
*1487 FILLER_0_22_127
*1488 FILLER_0_22_139
*1489 FILLER_0_22_141
*1490 FILLER_0_22_145
*1491 FILLER_0_22_15
*1492 FILLER_0_22_156
*1493 FILLER_0_22_168
*1494 FILLER_0_22_176
*1495 FILLER_0_22_184
*1496 FILLER_0_22_190
*1497 FILLER_0_22_206
*1498 FILLER_0_22_218
*1499 FILLER_0_22_226
*1500 FILLER_0_22_259
*1501 FILLER_0_22_271
*1502 FILLER_0_22_279
*1503 FILLER_0_22_29
*1504 FILLER_0_22_291
*1505 FILLER_0_22_3
*1506 FILLER_0_22_303
*1507 FILLER_0_22_307
*1508 FILLER_0_22_312
*1509 FILLER_0_22_330
*1510 FILLER_0_22_334
*1511 FILLER_0_22_47
*1512 FILLER_0_22_51
*1513 FILLER_0_22_56
*1514 FILLER_0_22_64
*1515 FILLER_0_22_70
*1516 FILLER_0_22_76
*1517 FILLER_0_22_90
*1518 FILLER_0_23_122
*1519 FILLER_0_23_126
*1520 FILLER_0_23_141
*1521 FILLER_0_23_149
*1522 FILLER_0_23_158
*1523 FILLER_0_23_166
*1524 FILLER_0_23_169
*1525 FILLER_0_23_188
*1526 FILLER_0_23_20
*1527 FILLER_0_23_230
*1528 FILLER_0_23_234
*1529 FILLER_0_23_251
*1530 FILLER_0_23_275
*1531 FILLER_0_23_279
*1532 FILLER_0_23_281
*1533 FILLER_0_23_295
*1534 FILLER_0_23_3
*1535 FILLER_0_23_301
*1536 FILLER_0_23_31
*1537 FILLER_0_23_328
*1538 FILLER_0_23_337
*1539 FILLER_0_23_36
*1540 FILLER_0_23_45
*1541 FILLER_0_23_53
*1542 FILLER_0_23_57
*1543 FILLER_0_23_65
*1544 FILLER_0_23_72
*1545 FILLER_0_23_84
*1546 FILLER_0_23_9
*1547 FILLER_0_23_93
*1548 FILLER_0_24_103
*1549 FILLER_0_24_109
*1550 FILLER_0_24_115
*1551 FILLER_0_24_135
*1552 FILLER_0_24_139
*1553 FILLER_0_24_141
*1554 FILLER_0_24_150
*1555 FILLER_0_24_161
*1556 FILLER_0_24_175
*1557 FILLER_0_24_187
*1558 FILLER_0_24_195
*1559 FILLER_0_24_197
*1560 FILLER_0_24_209
*1561 FILLER_0_24_235
*1562 FILLER_0_24_240
*1563 FILLER_0_24_25
*1564 FILLER_0_24_272
*1565 FILLER_0_24_291
*1566 FILLER_0_24_3
*1567 FILLER_0_24_303
*1568 FILLER_0_24_307
*1569 FILLER_0_24_312
*1570 FILLER_0_24_324
*1571 FILLER_0_24_332
*1572 FILLER_0_24_47
*1573 FILLER_0_24_56
*1574 FILLER_0_24_74
*1575 FILLER_0_24_81
*1576 FILLER_0_24_85
*1577 FILLER_0_25_111
*1578 FILLER_0_25_113
*1579 FILLER_0_25_121
*1580 FILLER_0_25_141
*1581 FILLER_0_25_15
*1582 FILLER_0_25_169
*1583 FILLER_0_25_173
*1584 FILLER_0_25_197
*1585 FILLER_0_25_205
*1586 FILLER_0_25_217
*1587 FILLER_0_25_223
*1588 FILLER_0_25_225
*1589 FILLER_0_25_23
*1590 FILLER_0_25_237
*1591 FILLER_0_25_249
*1592 FILLER_0_25_265
*1593 FILLER_0_25_276
*1594 FILLER_0_25_281
*1595 FILLER_0_25_298
*1596 FILLER_0_25_3
*1597 FILLER_0_25_311
*1598 FILLER_0_25_337
*1599 FILLER_0_25_347
*1600 FILLER_0_25_35
*1601 FILLER_0_25_49
*1602 FILLER_0_25_76
*1603 FILLER_0_25_80
*1604 FILLER_0_25_84
*1605 FILLER_0_25_96
*1606 FILLER_0_26_121
*1607 FILLER_0_26_125
*1608 FILLER_0_26_138
*1609 FILLER_0_26_141
*1610 FILLER_0_26_156
*1611 FILLER_0_26_168
*1612 FILLER_0_26_176
*1613 FILLER_0_26_187
*1614 FILLER_0_26_195
*1615 FILLER_0_26_206
*1616 FILLER_0_26_232
*1617 FILLER_0_26_236
*1618 FILLER_0_26_244
*1619 FILLER_0_26_256
*1620 FILLER_0_26_269
*1621 FILLER_0_26_27
*1622 FILLER_0_26_281
*1623 FILLER_0_26_312
*1624 FILLER_0_26_320
*1625 FILLER_0_26_326
*1626 FILLER_0_26_33
*1627 FILLER_0_26_332
*1628 FILLER_0_26_340
*1629 FILLER_0_26_39
*1630 FILLER_0_26_55
*1631 FILLER_0_26_67
*1632 FILLER_0_26_77
*1633 FILLER_0_26_83
*1634 FILLER_0_26_85
*1635 FILLER_0_26_94
*1636 FILLER_0_27_103
*1637 FILLER_0_27_109
*1638 FILLER_0_27_113
*1639 FILLER_0_27_121
*1640 FILLER_0_27_15
*1641 FILLER_0_27_154
*1642 FILLER_0_27_165
*1643 FILLER_0_27_169
*1644 FILLER_0_27_175
*1645 FILLER_0_27_179
*1646 FILLER_0_27_191
*1647 FILLER_0_27_195
*1648 FILLER_0_27_207
*1649 FILLER_0_27_214
*1650 FILLER_0_27_222
*1651 FILLER_0_27_23
*1652 FILLER_0_27_260
*1653 FILLER_0_27_281
*1654 FILLER_0_27_285
*1655 FILLER_0_27_29
*1656 FILLER_0_27_3
*1657 FILLER_0_27_315
*1658 FILLER_0_27_319
*1659 FILLER_0_27_345
*1660 FILLER_0_27_41