*SPEF "ieee 1481-1999"
*DESIGN "tt_um_haozhezhu_top"
*DATE "11:11:11 Fri 11 11, 1111"
*VENDOR "OpenRCX"
*PROGRAM "Parallel Extraction"
*VERSION "1.0"
*DESIGN_FLOW "NAME_SCOPE LOCAL" "PIN_CAP NONE"
*DIVIDER /
*DELIMITER :
*BUS_DELIMITER []
*T_UNIT 1 NS
*C_UNIT 1 PF
*R_UNIT 1 OHM
*L_UNIT 1 HENRY

*NAME_MAP
*3 clk
*4 ena
*5 rst_n
*6 ui_in[0]
*7 ui_in[1]
*8 ui_in[2]
*9 ui_in[3]
*10 ui_in[4]
*11 ui_in[5]
*12 ui_in[6]
*13 ui_in[7]
*14 uio_in[0]
*15 uio_in[1]
*16 uio_in[2]
*17 uio_in[3]
*18 uio_in[4]
*19 uio_in[5]
*20 uio_in[6]
*21 uio_in[7]
*22 net36
*23 net37
*24 net38
*25 net39
*26 net40
*27 net41
*28 net42
*29 net43
*30 uio_out[0]
*31 uio_out[1]
*32 uio_out[2]
*33 uio_out[3]
*34 uio_out[4]
*35 uio_out[5]
*36 uio_out[6]
*37 uio_out[7]
*38 uo_out[0]
*39 uo_out[1]
*40 uo_out[2]
*41 uo_out[3]
*42 uo_out[4]
*43 uo_out[5]
*44 uo_out[6]
*45 net44
*46 _0000_
*47 _0001_
*48 _0002_
*49 _0003_
*50 _0004_
*51 _0005_
*52 _0006_
*53 _0007_
*54 _0008_
*55 _0009_
*56 _0010_
*57 _0011_
*58 _0012_
*59 _0013_
*60 _0014_
*61 _0015_
*62 _0016_
*63 _0017_
*64 _0018_
*65 _0019_
*66 _0020_
*67 _0021_
*68 _0022_
*69 _0023_
*70 _0024_
*71 _0025_
*72 _0026_
*73 _0027_
*74 _0028_
*75 _0029_
*76 _0030_
*77 _0031_
*78 _0032_
*79 _0033_
*80 _0034_
*81 _0035_
*82 _0036_
*83 _0037_
*84 _0038_
*85 _0039_
*86 _0040_
*87 _0041_
*88 _0042_
*89 _0043_
*90 _0044_
*91 _0045_
*92 _0046_
*93 _0047_
*94 _0048_
*95 _0049_
*96 _0050_
*97 _0051_
*98 _0052_
*99 _0053_
*100 _0054_
*101 _0055_
*102 _0056_
*103 _0057_
*104 _0058_
*105 _0059_
*106 _0060_
*107 _0061_
*108 _0062_
*109 _0063_
*110 _0064_
*111 _0065_
*112 _0066_
*113 _0067_
*114 _0068_
*115 _0069_
*116 _0070_
*117 _0071_
*118 _0072_
*119 _0073_
*120 _0074_
*121 _0075_
*122 _0076_
*123 _0077_
*124 _0078_
*125 _0079_
*126 _0080_
*127 _0081_
*128 _0082_
*129 _0083_
*130 _0084_
*131 _0085_
*132 _0086_
*133 _0087_
*134 _0088_
*135 _0089_
*136 _0090_
*137 _0091_
*138 _0092_
*139 _0093_
*140 _0094_
*141 _0095_
*142 _0096_
*143 _0097_
*144 _0098_
*145 _0099_
*146 _0100_
*147 _0101_
*148 _0102_
*149 _0103_
*150 _0104_
*151 _0105_
*152 _0106_
*153 _0107_
*154 _0108_
*155 _0109_
*156 _0110_
*157 _0111_
*158 _0112_
*159 _0113_
*160 _0114_
*161 _0115_
*162 _0116_
*163 _0117_
*164 _0118_
*165 _0119_
*166 _0120_
*167 _0121_
*168 _0122_
*169 _0123_
*170 _0124_
*171 _0125_
*172 _0126_
*173 _0127_
*174 _0128_
*175 _0129_
*176 _0130_
*177 _0131_
*178 _0132_
*179 _0133_
*180 _0134_
*181 _0135_
*182 _0136_
*183 _0137_
*184 _0138_
*185 _0139_
*186 _0140_
*187 _0141_
*188 _0142_
*189 _0143_
*190 _0144_
*191 _0145_
*192 _0146_
*193 _0147_
*194 _0148_
*195 _0149_
*196 _0150_
*197 _0151_
*198 _0152_
*199 _0153_
*200 _0154_
*201 _0155_
*202 _0156_
*203 _0157_
*204 _0158_
*205 _0159_
*206 _0160_
*207 _0161_
*208 _0162_
*209 _0163_
*210 _0164_
*211 _0165_
*212 _0166_
*213 _0167_
*214 _0168_
*215 _0169_
*216 _0170_
*217 _0171_
*218 _0172_
*219 _0173_
*220 _0174_
*221 _0175_
*222 _0176_
*223 _0177_
*224 _0178_
*225 _0179_
*226 _0180_
*227 _0181_
*228 _0182_
*229 _0183_
*230 _0184_
*231 _0185_
*232 _0186_
*233 _0187_
*234 _0188_
*235 _0189_
*236 _0190_
*237 _0191_
*238 _0192_
*239 _0193_
*240 _0194_
*241 _0195_
*242 _0196_
*243 _0197_
*244 _0198_
*245 _0199_
*246 _0200_
*247 _0201_
*248 _0202_
*249 _0203_
*250 _0204_
*251 _0205_
*252 _0206_
*253 _0207_
*254 _0208_
*255 _0209_
*256 _0210_
*257 _0211_
*258 _0212_
*259 _0213_
*260 _0214_
*261 _0215_
*262 _0216_
*263 _0217_
*264 _0218_
*265 _0219_
*266 _0220_
*267 _0221_
*268 _0222_
*269 _0223_
*270 _0224_
*271 _0225_
*272 _0226_
*273 _0227_
*274 _0228_
*275 _0229_
*276 _0230_
*277 _0231_
*278 _0232_
*279 _0233_
*280 _0234_
*281 _0235_
*282 _0236_
*283 _0237_
*284 _0238_
*285 _0239_
*286 _0240_
*287 _0241_
*288 _0242_
*289 _0243_
*290 _0244_
*291 _0245_
*292 _0246_
*293 _0247_
*294 _0248_
*295 _0249_
*296 _0250_
*297 _0251_
*298 _0252_
*299 _0253_
*300 _0254_
*301 _0255_
*302 _0256_
*303 _0257_
*304 _0258_
*305 _0259_
*306 _0260_
*307 _0261_
*308 _0262_
*309 _0263_
*310 _0264_
*311 _0265_
*312 _0266_
*313 _0267_
*314 _0268_
*315 _0269_
*316 _0270_
*317 _0271_
*318 _0272_
*319 _0273_
*320 _0274_
*321 _0275_
*322 _0276_
*323 _0277_
*324 _0278_
*325 _0279_
*326 _0280_
*327 _0281_
*328 _0282_
*329 _0283_
*330 _0284_
*331 _0285_
*332 _0286_
*333 _0287_
*334 _0288_
*335 _0289_
*336 _0290_
*337 _0291_
*338 _0292_
*339 _0293_
*340 _0294_
*341 _0295_
*342 _0296_
*343 _0297_
*344 _0298_
*345 _0299_
*346 _0300_
*347 _0301_
*348 _0302_
*349 _0303_
*350 _0304_
*351 _0305_
*352 _0306_
*353 _0307_
*354 _0308_
*355 _0309_
*356 _0310_
*357 _0311_
*358 _0312_
*359 _0313_
*360 _0314_
*361 _0315_
*362 _0316_
*363 _0317_
*364 _0318_
*365 _0319_
*366 _0320_
*367 _0321_
*368 _0322_
*369 _0323_
*370 _0324_
*371 _0325_
*372 _0326_
*373 _0327_
*374 _0328_
*375 _0329_
*376 _0330_
*377 _0331_
*378 _0332_
*379 _0333_
*380 _0334_
*381 _0335_
*382 _0336_
*383 _0337_
*384 _0338_
*385 _0339_
*386 _0340_
*387 _0341_
*388 _0342_
*389 _0343_
*390 _0344_
*391 _0345_
*392 _0346_
*393 _0347_
*394 _0348_
*395 _0349_
*396 _0350_
*397 _0351_
*398 _0352_
*399 _0353_
*400 _0354_
*401 _0355_
*402 _0356_
*403 _0357_
*404 _0358_
*405 _0359_
*406 _0360_
*407 _0361_
*408 _0362_
*409 _0363_
*410 _0364_
*411 _0365_
*412 _0366_
*413 _0367_
*414 _0368_
*415 _0369_
*416 _0370_
*417 _0371_
*418 _0372_
*419 _0373_
*420 _0374_
*421 _0375_
*422 _0376_
*423 _0377_
*424 _0378_
*425 _0379_
*426 _0380_
*427 _0381_
*428 _0382_
*429 _0383_
*430 _0384_
*431 _0385_
*432 _0386_
*433 _0387_
*434 _0388_
*435 _0389_
*436 _0390_
*437 _0391_
*438 _0392_
*439 _0393_
*440 _0394_
*441 _0395_
*442 _0396_
*443 _0397_
*444 _0398_
*445 _0399_
*446 _0400_
*447 _0401_
*448 _0402_
*449 _0403_
*450 _0404_
*451 _0405_
*452 _0406_
*453 _0407_
*454 _0408_
*455 _0409_
*456 _0410_
*457 _0411_
*458 _0412_
*459 _0413_
*460 _0414_
*461 _0415_
*462 _0416_
*463 _0417_
*464 _0418_
*465 _0419_
*466 _0420_
*467 _0421_
*468 _0422_
*469 _0423_
*470 _0424_
*471 _0425_
*472 _0426_
*473 _0427_
*474 _0428_
*475 _0429_
*476 _0430_
*477 _0431_
*478 _0432_
*479 _0433_
*480 _0434_
*481 _0435_
*482 _0436_
*483 _0437_
*484 _0438_
*485 _0439_
*486 _0440_
*487 _0441_
*488 _0442_
*489 _0443_
*490 _0444_
*491 _0445_
*492 _0446_
*493 _0447_
*494 _0448_
*495 _0449_
*496 _0450_
*497 _0451_
*498 _0452_
*499 _0453_
*500 _0454_
*501 _0455_
*502 _0456_
*503 _0457_
*504 _0458_
*505 _0459_
*506 _0460_
*507 _0461_
*508 _0462_
*509 _0463_
*510 _0464_
*511 _0465_
*512 _0466_
*513 _0467_
*514 _0468_
*515 _0469_
*516 _0470_
*517 _0471_
*518 _0472_
*519 _0473_
*520 _0474_
*521 _0475_
*522 _0476_
*523 _0477_
*524 _0478_
*525 _0479_
*526 _0480_
*527 _0481_
*528 _0482_
*529 _0483_
*530 _0484_
*531 _0485_
*532 _0486_
*533 _0487_
*534 _0488_
*535 _0489_
*536 _0490_
*537 _0491_
*538 _0492_
*539 _0493_
*540 _0494_
*541 _0495_
*542 _0496_
*543 _0497_
*544 _0498_
*545 _0499_
*546 _0500_
*547 _0501_
*548 _0502_
*549 _0503_
*550 _0504_
*551 _0505_
*552 _0506_
*553 _0507_
*554 _0508_
*555 _0509_
*556 _0510_
*557 _0511_
*558 _0512_
*559 _0513_
*560 _0514_
*561 _0515_
*562 _0516_
*563 _0517_
*564 _0518_
*565 _0519_
*566 _0520_
*567 _0521_
*568 _0522_
*569 _0523_
*570 _0524_
*571 _0525_
*572 _0526_
*573 _0527_
*574 _0528_
*575 _0529_
*576 _0530_
*577 _0531_
*578 _0532_
*579 _0533_
*580 _0534_
*581 _0535_
*582 _0536_
*583 _0537_
*584 _0538_
*585 _0539_
*586 _0540_
*587 _0541_
*588 _0542_
*589 _0543_
*590 _0544_
*591 _0545_
*592 _0546_
*593 _0547_
*594 _0548_
*595 _0549_
*596 _0550_
*597 _0551_
*598 _0552_
*599 _0553_
*600 _0554_
*601 _0555_
*602 _0556_
*603 _0557_
*604 _0558_
*605 _0559_
*606 _0560_
*607 _0561_
*608 _0562_
*609 _0563_
*610 _0564_
*611 _0565_
*612 _0566_
*613 _0567_
*614 _0568_
*615 _0569_
*616 _0570_
*617 _0571_
*618 _0572_
*619 _0573_
*620 _0574_
*621 _0575_
*622 _0576_
*623 _0577_
*624 _0578_
*625 _0579_
*626 _0580_
*627 _0581_
*628 _0582_
*629 _0583_
*630 _0584_
*631 _0585_
*632 _0586_
*633 _0587_
*634 _0588_
*635 _0589_
*636 _0590_
*637 _0591_
*638 _0592_
*639 _0593_
*640 _0594_
*641 _0595_
*642 _0596_
*643 _0597_
*644 _0598_
*645 _0599_
*646 _0600_
*647 _0601_
*648 _0602_
*649 _0603_
*650 _0604_
*651 _0605_
*652 _0606_
*653 _0607_
*654 _0608_
*655 _0609_
*656 _0610_
*657 _0611_
*658 _0612_
*659 _0613_
*660 _0614_
*661 _0615_
*662 _0616_
*663 _0617_
*664 _0618_
*665 _0619_
*666 _0620_
*667 _0621_
*668 _0622_
*669 _0623_
*670 _0624_
*671 _0625_
*672 _0626_
*673 _0627_
*674 _0628_
*675 _0629_
*676 _0630_
*677 _0631_
*678 _0632_
*679 _0633_
*680 _0634_
*681 _0635_
*682 _0636_
*683 _0637_
*684 _0638_
*685 _0639_
*686 _0640_
*687 _0641_
*688 _0642_
*689 _0643_
*690 _0644_
*691 _0645_
*692 _0646_
*693 _0647_
*694 _0648_
*695 _0649_
*696 _0650_
*697 _0651_
*698 _0652_
*699 _0653_
*700 _0654_
*701 _0655_
*702 _0656_
*703 _0657_
*704 _0658_
*705 _0659_
*706 _0660_
*707 _0661_
*708 _0662_
*709 _0663_
*710 _0664_
*711 _0665_
*712 _0666_
*713 _0667_
*714 _0668_
*715 _0669_
*716 _0670_
*717 _0671_
*718 _0672_
*719 _0673_
*720 _0674_
*721 _0675_
*722 _0676_
*723 _0677_
*724 _0678_
*725 _0679_
*726 _0680_
*727 _0681_
*728 _0682_
*729 _0683_
*730 _0684_
*731 _0685_
*732 _0686_
*733 _0687_
*734 _0688_
*735 _0689_
*736 _0690_
*737 _0691_
*738 _0692_
*739 _0693_
*740 _0694_
*741 _0695_
*742 _0696_
*743 _0697_
*744 _0698_
*745 _0699_
*746 _0700_
*747 _0701_
*748 _0702_
*749 _0703_
*750 _0704_
*751 _0705_
*752 _0706_
*753 _0707_
*754 _0708_
*755 _0709_
*756 _0710_
*757 _0711_
*758 _0712_
*759 _0713_
*760 _0714_
*761 _0715_
*762 _0716_
*763 _0717_
*764 _0718_
*765 _0719_
*766 _0720_
*767 _0721_
*768 _0722_
*769 _0723_
*770 _0724_
*771 _0725_
*772 _0726_
*773 _0727_
*774 _0728_
*775 _0729_
*776 _0730_
*777 _0731_
*778 _0732_
*779 _0733_
*780 _0734_
*781 _0735_
*782 _0736_
*783 _0737_
*784 _0738_
*785 _0739_
*786 _0740_
*787 _0741_
*788 _0742_
*789 _0743_
*790 _0744_
*791 _0745_
*792 _0746_
*793 _0747_
*794 _0748_
*795 _0749_
*796 _0750_
*797 _0751_
*798 _0752_
*799 _0753_
*800 _0754_
*801 _0755_
*802 _0756_
*803 _0757_
*804 _0758_
*805 _0759_
*806 _0760_
*807 _0761_
*808 _0762_
*809 _0763_
*810 _0764_
*811 _0765_
*812 _0766_
*813 _0767_
*814 _0768_
*815 _0769_
*816 _0770_
*817 _0771_
*818 _0772_
*819 _0773_
*820 _0774_
*821 _0775_
*822 _0776_
*823 _0777_
*824 _0778_
*825 _0779_
*826 _0780_
*827 _0781_
*828 _0782_
*829 _0783_
*830 _0784_
*831 _0785_
*832 _0786_
*833 _0787_
*834 _0788_
*835 _0789_
*836 _0790_
*837 _0791_
*838 _0792_
*839 _0793_
*840 _0794_
*841 _0795_
*842 _0796_
*843 _0797_
*844 _0798_
*845 _0799_
*846 _0800_
*847 _0801_
*848 _0802_
*849 _0803_
*850 _0804_
*851 _0805_
*852 _0806_
*853 _0807_
*854 _0808_
*855 _0809_
*856 _0810_
*857 _0811_
*858 _0812_
*859 _0813_
*860 _0814_
*861 _0815_
*862 _0816_
*863 _0817_
*864 _0818_
*865 _0819_
*866 _0820_
*867 _0821_
*868 _0822_
*869 _0823_
*870 _0824_
*871 _0825_
*872 _0826_
*873 _0827_
*874 _0828_
*875 _0829_
*876 _0830_
*877 _0831_
*878 _0832_
*879 _0833_
*880 _0834_
*881 _0835_
*882 _0836_
*883 _0837_
*884 _0838_
*885 _0839_
*886 _0840_
*887 _0841_
*888 _0842_
*889 _0843_
*890 _0844_
*891 _0845_
*892 _0846_
*893 _0847_
*894 _0848_
*895 _0849_
*896 _0850_
*897 data_array\[0\]\[0\]
*898 data_array\[0\]\[1\]
*899 data_array\[0\]\[2\]
*900 data_array\[0\]\[3\]
*901 data_array\[10\]\[0\]
*902 data_array\[10\]\[1\]
*903 data_array\[10\]\[2\]
*904 data_array\[10\]\[3\]
*905 data_array\[11\]\[0\]
*906 data_array\[11\]\[1\]
*907 data_array\[11\]\[2\]
*908 data_array\[11\]\[3\]
*909 data_array\[12\]\[0\]
*910 data_array\[12\]\[1\]
*911 data_array\[12\]\[2\]
*912 data_array\[12\]\[3\]
*913 data_array\[13\]\[0\]
*914 data_array\[13\]\[1\]
*915 data_array\[13\]\[2\]
*916 data_array\[13\]\[3\]
*917 data_array\[14\]\[0\]
*918 data_array\[14\]\[1\]
*919 data_array\[14\]\[2\]
*920 data_array\[14\]\[3\]
*921 data_array\[15\]\[0\]
*922 data_array\[15\]\[1\]
*923 data_array\[15\]\[2\]
*924 data_array\[15\]\[3\]
*925 data_array\[16\]\[0\]
*926 data_array\[16\]\[1\]
*927 data_array\[16\]\[2\]
*928 data_array\[16\]\[3\]
*929 data_array\[17\]\[0\]
*930 data_array\[17\]\[1\]
*931 data_array\[17\]\[2\]
*932 data_array\[17\]\[3\]
*933 data_array\[18\]\[0\]
*934 data_array\[18\]\[1\]
*935 data_array\[18\]\[2\]
*936 data_array\[18\]\[3\]
*937 data_array\[19\]\[0\]
*938 data_array\[19\]\[1\]
*939 data_array\[19\]\[2\]
*940 data_array\[19\]\[3\]
*941 data_array\[1\]\[0\]
*942 data_array\[1\]\[1\]
*943 data_array\[1\]\[2\]
*944 data_array\[1\]\[3\]
*945 data_array\[20\]\[0\]
*946 data_array\[20\]\[1\]
*947 data_array\[20\]\[2\]
*948 data_array\[20\]\[3\]
*949 data_array\[21\]\[0\]
*950 data_array\[21\]\[1\]
*951 data_array\[21\]\[2\]
*952 data_array\[21\]\[3\]
*953 data_array\[22\]\[0\]
*954 data_array\[22\]\[1\]
*955 data_array\[22\]\[2\]
*956 data_array\[22\]\[3\]
*957 data_array\[23\]\[0\]
*958 data_array\[23\]\[1\]
*959 data_array\[23\]\[2\]
*960 data_array\[23\]\[3\]
*961 data_array\[24\]\[0\]
*962 data_array\[24\]\[1\]
*963 data_array\[24\]\[2\]
*964 data_array\[24\]\[3\]
*965 data_array\[25\]\[0\]
*966 data_array\[25\]\[1\]
*967 data_array\[25\]\[2\]
*968 data_array\[25\]\[3\]
*969 data_array\[26\]\[0\]
*970 data_array\[26\]\[1\]
*971 data_array\[26\]\[2\]
*972 data_array\[26\]\[3\]
*973 data_array\[27\]\[0\]
*974 data_array\[27\]\[1\]
*975 data_array\[27\]\[2\]
*976 data_array\[27\]\[3\]
*977 data_array\[28\]\[0\]
*978 data_array\[28\]\[1\]
*979 data_array\[28\]\[2\]
*980 data_array\[28\]\[3\]
*981 data_array\[29\]\[0\]
*982 data_array\[29\]\[1\]
*983 data_array\[29\]\[2\]
*984 data_array\[29\]\[3\]
*985 data_array\[2\]\[0\]
*986 data_array\[2\]\[1\]
*987 data_array\[2\]\[2\]
*988 data_array\[2\]\[3\]
*989 data_array\[3\]\[0\]
*990 data_array\[3\]\[1\]
*991 data_array\[3\]\[2\]
*992 data_array\[3\]\[3\]
*993 data_array\[4\]\[0\]
*994 data_array\[4\]\[1\]
*995 data_array\[4\]\[2\]
*996 data_array\[4\]\[3\]
*997 data_array\[5\]\[0\]
*998 data_array\[5\]\[1\]
*999 data_array\[5\]\[2\]
*1000 data_array\[5\]\[3\]
*1001 data_array\[6\]\[0\]
*1002 data_array\[6\]\[1\]
*1003 data_array\[6\]\[2\]
*1004 data_array\[6\]\[3\]
*1005 data_array\[7\]\[0\]
*1006 data_array\[7\]\[1\]
*1007 data_array\[7\]\[2\]
*1008 data_array\[7\]\[3\]
*1009 data_array\[8\]\[0\]
*1010 data_array\[8\]\[1\]
*1011 data_array\[8\]\[2\]
*1012 data_array\[8\]\[3\]
*1013 data_array\[9\]\[0\]
*1014 data_array\[9\]\[1\]
*1015 data_array\[9\]\[2\]
*1016 data_array\[9\]\[3\]
*1017 empty
*1018 full
*1019 net1
*1020 net10
*1021 net11
*1022 net12
*1023 net13
*1024 net14
*1025 net15
*1026 net16
*1027 net17
*1028 net18
*1029 net19
*1030 net2
*1031 net20
*1032 net21
*1033 net22
*1034 net23
*1035 net24
*1036 net25
*1037 net26
*1038 net27
*1039 net28
*1040 net29
*1041 net3
*1042 net30
*1043 net31
*1044 net32
*1045 net33
*1046 net34
*1047 net35
*1048 net4
*1049 net5
*1050 net6
*1051 net7
*1052 net8
*1053 net9
*1054 output_valid
*1055 seg7\.counter\[0\]
*1056 seg7\.counter\[1\]
*1057 seg7\.counter\[2\]
*1058 seg7\.counter\[3\]
*1059 seg7\.counter\[4\]
*1060 seg7\.overflow
*1061 write_addr\[0\]
*1062 write_addr\[1\]
*1063 write_addr\[2\]
*1064 write_addr\[3\]
*1065 write_addr\[4\]
*1066 ANTENNA_1
*1067 ANTENNA_10
*1068 ANTENNA_11
*1069 ANTENNA_12
*1070 ANTENNA_13
*1071 ANTENNA_14
*1072 ANTENNA_2
*1073 ANTENNA_3
*1074 ANTENNA_4
*1075 ANTENNA_5
*1076 ANTENNA_6
*1077 ANTENNA_7
*1078 ANTENNA_8
*1079 ANTENNA_9
*1080 FILLER_0_0_106
*1081 FILLER_0_0_113
*1082 FILLER_0_0_122
*1083 FILLER_0_0_129
*1084 FILLER_0_0_138
*1085 FILLER_0_0_15
*1086 FILLER_0_0_157
*1087 FILLER_0_0_165
*1088 FILLER_0_0_169
*1089 FILLER_0_0_177
*1090 FILLER_0_0_185
*1091 FILLER_0_0_193
*1092 FILLER_0_0_213
*1093 FILLER_0_0_222
*1094 FILLER_0_0_225
*1095 FILLER_0_0_243
*1096 FILLER_0_0_251
*1097 FILLER_0_0_253
*1098 FILLER_0_0_264
*1099 FILLER_0_0_27
*1100 FILLER_0_0_276
*1101 FILLER_0_0_286
*1102 FILLER_0_0_29
*1103 FILLER_0_0_3
*1104 FILLER_0_0_309
*1105 FILLER_0_0_327
*1106 FILLER_0_0_335
*1107 FILLER_0_0_337
*1108 FILLER_0_0_349
*1109 FILLER_0_0_41
*1110 FILLER_0_0_53
*1111 FILLER_0_0_57
*1112 FILLER_0_0_61
*1113 FILLER_0_0_78
*1114 FILLER_0_0_85
*1115 FILLER_0_0_94
*1116 FILLER_0_10_109
*1117 FILLER_0_10_123
*1118 FILLER_0_10_131
*1119 FILLER_0_10_137
*1120 FILLER_0_10_149
*1121 FILLER_0_10_157
*1122 FILLER_0_10_164
*1123 FILLER_0_10_188
*1124 FILLER_0_10_197
*1125 FILLER_0_10_209
*1126 FILLER_0_10_217
*1127 FILLER_0_10_223
*1128 FILLER_0_10_235
*1129 FILLER_0_10_244
*1130 FILLER_0_10_25
*1131 FILLER_0_10_263
*1132 FILLER_0_10_271
*1133 FILLER_0_10_29
*1134 FILLER_0_10_298
*1135 FILLER_0_10_3
*1136 FILLER_0_10_306
*1137 FILLER_0_10_309
*1138 FILLER_0_10_321
*1139 FILLER_0_10_332
*1140 FILLER_0_10_41
*1141 FILLER_0_10_58
*1142 FILLER_0_10_7
*1143 FILLER_0_10_98
*1144 FILLER_0_11_110
*1145 FILLER_0_11_113
*1146 FILLER_0_11_125
*1147 FILLER_0_11_129
*1148 FILLER_0_11_13
*1149 FILLER_0_11_135
*1150 FILLER_0_11_145
*1151 FILLER_0_11_159
*1152 FILLER_0_11_167
*1153 FILLER_0_11_17
*1154 FILLER_0_11_178
*1155 FILLER_0_11_185
*1156 FILLER_0_11_189
*1157 FILLER_0_11_201
*1158 FILLER_0_11_212
*1159 FILLER_0_11_232
*1160 FILLER_0_11_255
*1161 FILLER_0_11_27
*1162 FILLER_0_11_273
*1163 FILLER_0_11_281
*1164 FILLER_0_11_293
*1165 FILLER_0_11_3
*1166 FILLER_0_11_316
*1167 FILLER_0_11_335
*1168 FILLER_0_11_342
*1169 FILLER_0_11_350
*1170 FILLER_0_11_52
*1171 FILLER_0_11_57
*1172 FILLER_0_11_69
*1173 FILLER_0_11_9
*1174 FILLER_0_11_96
*1175 FILLER_0_12_113
*1176 FILLER_0_12_132
*1177 FILLER_0_12_141
*1178 FILLER_0_12_145
*1179 FILLER_0_12_151
*1180 FILLER_0_12_163
*1181 FILLER_0_12_170
*1182 FILLER_0_12_187
*1183 FILLER_0_12_194
*1184 FILLER_0_12_197
*1185 FILLER_0_12_215
*1186 FILLER_0_12_227
*1187 FILLER_0_12_233
*1188 FILLER_0_12_242
*1189 FILLER_0_12_250
*1190 FILLER_0_12_253
*1191 FILLER_0_12_26
*1192 FILLER_0_12_264
*1193 FILLER_0_12_276
*1194 FILLER_0_12_282
*1195 FILLER_0_12_29
*1196 FILLER_0_12_291
*1197 FILLER_0_12_3
*1198 FILLER_0_12_303
*1199 FILLER_0_12_307
*1200 FILLER_0_12_312
*1201 FILLER_0_12_41
*1202 FILLER_0_12_56
*1203 FILLER_0_12_68
*1204 FILLER_0_12_85
*1205 FILLER_0_13_109
*1206 FILLER_0_13_113
*1207 FILLER_0_13_117
*1208 FILLER_0_13_125
*1209 FILLER_0_13_131
*1210 FILLER_0_13_137
*1211 FILLER_0_13_14
*1212 FILLER_0_13_164
*1213 FILLER_0_13_178
*1214 FILLER_0_13_199
*1215 FILLER_0_13_209
*1216 FILLER_0_13_246
*1217 FILLER_0_13_254
*1218 FILLER_0_13_26
*1219 FILLER_0_13_269
*1220 FILLER_0_13_277
*1221 FILLER_0_13_286
*1222 FILLER_0_13_3
*1223 FILLER_0_13_304
*1224 FILLER_0_13_312
*1225 FILLER_0_13_328
*1226 FILLER_0_13_337
*1227 FILLER_0_13_349
*1228 FILLER_0_13_45
*1229 FILLER_0_13_78
*1230 FILLER_0_13_85
*1231 FILLER_0_13_97
*1232 FILLER_0_14_104
*1233 FILLER_0_14_116
*1234 FILLER_0_14_137
*1235 FILLER_0_14_141
*1236 FILLER_0_14_153
*1237 FILLER_0_14_161
*1238 FILLER_0_14_172
*1239 FILLER_0_14_185
*1240 FILLER_0_14_193
*1241 FILLER_0_14_197
*1242 FILLER_0_14_202
*1243 FILLER_0_14_214
*1244 FILLER_0_14_226
*1245 FILLER_0_14_23
*1246 FILLER_0_14_230
*1247 FILLER_0_14_238
*1248 FILLER_0_14_245
*1249 FILLER_0_14_251
*1250 FILLER_0_14_253
*1251 FILLER_0_14_259
*1252 FILLER_0_14_27
*1253 FILLER_0_14_274
*1254 FILLER_0_14_287
*1255 FILLER_0_14_29
*1256 FILLER_0_14_3
*1257 FILLER_0_14_305
*1258 FILLER_0_14_309
*1259 FILLER_0_14_324
*1260 FILLER_0_14_332
*1261 FILLER_0_14_41
*1262 FILLER_0_14_54
*1263 FILLER_0_15_101
*1264 FILLER_0_15_113
*1265 FILLER_0_15_124
*1266 FILLER_0_15_132
*1267 FILLER_0_15_149
*1268 FILLER_0_15_15
*1269 FILLER_0_15_153
*1270 FILLER_0_15_167
*1271 FILLER_0_15_169
*1272 FILLER_0_15_173
*1273 FILLER_0_15_180
*1274 FILLER_0_15_190
*1275 FILLER_0_15_198
*1276 FILLER_0_15_220
*1277 FILLER_0_15_240
*1278 FILLER_0_15_260
*1279 FILLER_0_15_27
*1280 FILLER_0_15_271
*1281 FILLER_0_15_292
*1282 FILLER_0_15_3
*1283 FILLER_0_15_304
*1284 FILLER_0_15_31
*1285 FILLER_0_15_316
*1286 FILLER_0_15_337
*1287 FILLER_0_15_349
*1288 FILLER_0_15_62
*1289 FILLER_0_15_73
*1290 FILLER_0_15_87
*1291 FILLER_0_15_97
*1292 FILLER_0_16_106
*1293 FILLER_0_16_118
*1294 FILLER_0_16_132
*1295 FILLER_0_16_141
*1296 FILLER_0_16_148
*1297 FILLER_0_16_168
*1298 FILLER_0_16_180
*1299 FILLER_0_16_193
*1300 FILLER_0_16_197
*1301 FILLER_0_16_21
*1302 FILLER_0_16_210
*1303 FILLER_0_16_222
*1304 FILLER_0_16_230
*1305 FILLER_0_16_241
*1306 FILLER_0_16_249
*1307 FILLER_0_16_253
*1308 FILLER_0_16_261
*1309 FILLER_0_16_280
*1310 FILLER_0_16_288
*1311 FILLER_0_16_3
*1312 FILLER_0_16_303
*1313 FILLER_0_16_307
*1314 FILLER_0_16_349
*1315 FILLER_0_16_42
*1316 FILLER_0_16_54
*1317 FILLER_0_16_59
*1318 FILLER_0_16_71
*1319 FILLER_0_16_89
*1320 FILLER_0_16_98
*1321 FILLER_0_17_111
*1322 FILLER_0_17_113
*1323 FILLER_0_17_122
*1324 FILLER_0_17_141
*1325 FILLER_0_17_157
*1326 FILLER_0_17_161
*1327 FILLER_0_17_167
*1328 FILLER_0_17_174
*1329 FILLER_0_17_200
*1330 FILLER_0_17_218
*1331 FILLER_0_17_225
*1332 FILLER_0_17_23
*1333 FILLER_0_17_232
*1334 FILLER_0_17_244
*1335 FILLER_0_17_255
*1336 FILLER_0_17_263
*1337 FILLER_0_17_273
*1338 FILLER_0_17_279
*1339 FILLER_0_17_281
*1340 FILLER_0_17_3
*1341 FILLER_0_17_313
*1342 FILLER_0_17_334
*1343 FILLER_0_17_337
*1344 FILLER_0_17_349
*1345 FILLER_0_17_40
*1346 FILLER_0_17_48
*1347 FILLER_0_17_55
*1348 FILLER_0_17_87
*1349 FILLER_0_17_99
*1350 FILLER_0_18_105
*1351 FILLER_0_18_117
*1352 FILLER_0_18_129
*1353 FILLER_0_18_136
*1354 FILLER_0_18_141
*1355 FILLER_0_18_149
*1356 FILLER_0_18_15
*1357 FILLER_0_18_158
*1358 FILLER_0_18_167
*1359 FILLER_0_18_176
*1360 FILLER_0_18_188
*1361 FILLER_0_18_197
*1362 FILLER_0_18_203
*1363 FILLER_0_18_213
*1364 FILLER_0_18_240
*1365 FILLER_0_18_248
*1366 FILLER_0_18_261
*1367 FILLER_0_18_27
*1368 FILLER_0_18_280
*1369 FILLER_0_18_289
*1370 FILLER_0_18_29
*1371 FILLER_0_18_293
*1372 FILLER_0_18_3
*1373 FILLER_0_18_309
*1374 FILLER_0_18_321
*1375 FILLER_0_18_333
*1376 FILLER_0_18_345
*1377 FILLER_0_18_52
*1378 FILLER_0_18_64
*1379 FILLER_0_18_68
*1380 FILLER_0_18_72
*1381 FILLER_0_18_93
*1382 FILLER_0_19_103
*1383 FILLER_0_19_110
*1384 FILLER_0_19_118
*1385 FILLER_0_19_129
*1386 FILLER_0_19_137
*1387 FILLER_0_19_149
*1388 FILLER_0_19_165
*1389 FILLER_0_19_174
*1390 FILLER_0_19_183
*1391 FILLER_0_19_192
*1392 FILLER_0_19_198
*1393 FILLER_0_19_207
*1394 FILLER_0_19_21
*1395 FILLER_0_19_213
*1396 FILLER_0_19_236
*1397 FILLER_0_19_241
*1398 FILLER_0_19_253
*1399 FILLER_0_19_257
*1400 FILLER_0_19_262
*1401 FILLER_0_19_273
*1402 FILLER_0_19_279
*1403 FILLER_0_19_281
*1404 FILLER_0_19_297
*1405 FILLER_0_19_3
*1406 FILLER_0_19_304
*1407 FILLER_0_19_337
*1408 FILLER_0_19_349
*1409 FILLER_0_19_38
*1410 FILLER_0_19_50
*1411 FILLER_0_19_65
*1412 FILLER_0_19_85
*1413 FILLER_0_19_94
*1414 FILLER_0_1_110
*1415 FILLER_0_1_113
*1416 FILLER_0_1_130
*1417 FILLER_0_1_142
*1418 FILLER_0_1_15
*1419 FILLER_0_1_169
*1420 FILLER_0_1_194
*1421 FILLER_0_1_208
*1422 FILLER_0_1_230
*1423 FILLER_0_1_248
*1424 FILLER_0_1_254
*1425 FILLER_0_1_27
*1426 FILLER_0_1_271
*1427 FILLER_0_1_281
*1428 FILLER_0_1_298
*1429 FILLER_0_1_3
*1430 FILLER_0_1_310
*1431 FILLER_0_1_322
*1432 FILLER_0_1_334
*1433 FILLER_0_1_337
*1434 FILLER_0_1_349
*1435 FILLER_0_1_39
*1436 FILLER_0_1_51
*1437 FILLER_0_1_55
*1438 FILLER_0_1_57
*1439 FILLER_0_1_69
*1440 FILLER_0_1_84
*1441 FILLER_0_20_105
*1442 FILLER_0_20_113
*1443 FILLER_0_20_128
*1444 FILLER_0_20_137
*1445 FILLER_0_20_141
*1446 FILLER_0_20_15
*1447 FILLER_0_20_151
*1448 FILLER_0_20_163
*1449 FILLER_0_20_178
*1450 FILLER_0_20_185
*1451 FILLER_0_20_193
*1452 FILLER_0_20_197
*1453 FILLER_0_20_215
*1454 FILLER_0_20_225
*1455 FILLER_0_20_234
*1456 FILLER_0_20_248
*1457 FILLER_0_20_261
*1458 FILLER_0_20_278
*1459 FILLER_0_20_286
*1460 FILLER_0_20_3
*1461 FILLER_0_20_305
*1462 FILLER_0_20_309
*1463 FILLER_0_20_328
*1464 FILLER_0_20_334
*1465 FILLER_0_20_37
*1466 FILLER_0_20_45
*1467 FILLER_0_20_67
*1468 FILLER_0_20_83
*1469 FILLER_0_20_85
*1470 FILLER_0_20_95
*1471 FILLER_0_21_110
*1472 FILLER_0_21_113
*1473 FILLER_0_21_123
*1474 FILLER_0_21_136
*1475 FILLER_0_21_145
*1476 FILLER_0_21_160
*1477 FILLER_0_21_169
*1478 FILLER_0_21_177
*1479 FILLER_0_21_183
*1480 FILLER_0_21_187
*1481 FILLER_0_21_19
*1482 FILLER_0_21_194
*1483 FILLER_0_21_200
*1484 FILLER_0_21_209
*1485 FILLER_0_21_223
*1486 FILLER_0_21_231
*1487 FILLER_0_21_235
*1488 FILLER_0_21_253
*1489 FILLER_0_21_261
*1490 FILLER_0_21_27
*1491 FILLER_0_21_281
*1492 FILLER_0_21_303
*1493 FILLER_0_21_319
*1494 FILLER_0_21_337
*1495 FILLER_0_21_349
*1496 FILLER_0_21_43
*1497 FILLER_0_21_55
*1498 FILLER_0_21_63
*1499 FILLER_0_21_67
*1500 FILLER_0_21_71
*1501 FILLER_0_21_75
*1502 FILLER_0_21_84
*1503 FILLER_0_21_98
*1504 FILLER_0_22_111
*1505 FILLER_0_22_124
*1506 FILLER_0_22_128
*1507 FILLER_0_22_135
*1508 FILLER_0_22_139
*1509 FILLER_0_22_14
*1510 FILLER_0_22_141
*1511 FILLER_0_22_150
*1512 FILLER_0_22_154
*1513 FILLER_0_22_158
*1514 FILLER_0_22_171
*1515 FILLER_0_22_195
*1516 FILLER_0_22_197
*1517 FILLER_0_22_203
*1518 FILLER_0_22_208
*1519 FILLER_0_22_223
*1520 FILLER_0_22_235
*1521 FILLER_0_22_245
*1522 FILLER_0_22_251
*1523 FILLER_0_22_253
*1524 FILLER_0_22_26
*1525 FILLER_0_22_268
*1526 FILLER_0_22_272
*1527 FILLER_0_22_286
*1528 FILLER_0_22_298
*1529 FILLER_0_22_3
*1530 FILLER_0_22_306
*1531 FILLER_0_22_318
*1532 FILLER_0_22_326
*1533 FILLER_0_22_332
*1534 FILLER_0_22_45
*1535 FILLER_0_22_60
*1536 FILLER_0_22_78
*1537 FILLER_0_22_85
*1538 FILLER_0_22_91
*1539 FILLER_0_23_102
*1540 FILLER_0_23_106
*1541 FILLER_0_23_120
*1542 FILLER_0_23_132
*1543 FILLER_0_23_140
*1544 FILLER_0_23_147
*1545 FILLER_0_23_159
*1546 FILLER_0_23_167
*1547 FILLER_0_23_169
*1548 FILLER_0_23_181
*1549 FILLER_0_23_191
*1550 FILLER_0_23_197
*1551 FILLER_0_23_204
*1552 FILLER_0_23_212
*1553 FILLER_0_23_225
*1554 FILLER_0_23_254
*1555 FILLER_0_23_260
*1556 FILLER_0_23_273
*1557 FILLER_0_23_279
*1558 FILLER_0_23_303
*1559 FILLER_0_23_31
*1560 FILLER_0_23_323
*1561 FILLER_0_23_334
*1562 FILLER_0_23_340
*1563 FILLER_0_23_348
*1564 FILLER_0_23_39
*1565 FILLER_0_23_48
*1566 FILLER_0_23_63
*1567 FILLER_0_23_71
*1568 FILLER_0_23_98
*1569 FILLER_0_24_104
*1570 FILLER_0_24_112
*1571 FILLER_0_24_13
*1572 FILLER_0_24_134
*1573 FILLER_0_24_145
*1574 FILLER_0_24_157
*1575 FILLER_0_24_173
*1576 FILLER_0_24_190
*1577 FILLER_0_24_213
*1578 FILLER_0_24_222
*1579 FILLER_0_24_234
*1580 FILLER_0_24_248
*1581 FILLER_0_24_25
*1582 FILLER_0_24_253
*1583 FILLER_0_24_259
*1584 FILLER_0_24_263
*1585 FILLER_0_24_272
*1586 FILLER_0_24_3
*1587 FILLER_0_24_305
*1588 FILLER_0_24_312
*1589 FILLER_0_24_324
*1590 FILLER_0_24_332
*1591 FILLER_0_24_53
*1592 FILLER_0_24_7
*1593 FILLER_0_24_71
*1594 FILLER_0_24_83
*1595 FILLER_0_24_85
*1596 FILLER_0_24_89
*1597 FILLER_0_25_106
*1598 FILLER_0_25_113
*1599 FILLER_0_25_117
*1600 FILLER_0_25_123
*1601 FILLER_0_25_131
*1602 FILLER_0_25_143
*1603 FILLER_0_25_151
*1604 FILLER_0_25_162
*1605 FILLER_0_25_169
*1606 FILLER_0_25_182
*1607 FILLER_0_25_190
*1608 FILLER_0_25_205
*1609 FILLER_0_25_229
*1610 FILLER_0_25_235
*1611 FILLER_0_25_248
*1612 FILLER_0_25_252
*1613 FILLER_0_25_272
*1614 FILLER_0_25_294
*1615 FILLER_0_25_3
*1616 FILLER_0_25_307
*1617 FILLER_0_25_32
*1618 FILLER_0_25_324
*1619 FILLER_0_25_334
*1620 FILLER_0_25_340
*1621 FILLER_0_25_348
*1622 FILLER_0_25_44
*1623 FILLER_0_25_48
*1624 FILLER_0_25_65
*1625 FILLER_0_25_77
*1626 FILLER_0_25_89
*1627 FILLER_0_26_103
*1628 FILLER_0_26_109
*1629 FILLER_0_26_117
*1630 FILLER_0_26_130
*1631 FILLER_0_26_138
*1632 FILLER_0_26_147
*1633 FILLER_0_26_15
*1634 FILLER_0_26_155
*1635 FILLER_0_26_161
*1636 FILLER_0_26_172
*1637 FILLER_0_26_185
*1638 FILLER_0_26_193
*1639 FILLER_0_26_226
*1640 FILLER_0_26_230
*1641 FILLER_0_26_249
*1642 FILLER_0_26_266
*1643 FILLER_0_26_27
*1644 FILLER_0_26_283
*1645 FILLER_0_26_295
*1646 FILLER_0_26_3
*1647 FILLER_0_26_303
*1648 FILLER_0_26_307
*1649 FILLER_0_26_309
*1650 FILLER_0_26_321
*1651 FILLER_0_26_329
*1652 FILLER_0_26_59
*1653 FILLER_0_26_67
*1654 FILLER_0_26_83
*1655 FILLER_0_26_85
*1656 FILLER_0_26_91
*1657 FILLER_0_27_110
*1658 FILLER_0_27_113
*1659 FILLER_0_27_135
*1660 FILLER_0_27_143
*1661 FILLER_0_27_149
*1662 FILLER_0_27_174
*1663 FILLER_0_27_183
*1664 FILLER_0_27_195
*1665 FILLER_0_27_207
*1666 FILLER_0_27_213
*1667 FILLER_0_27_221
*1668 FILLER_0_27_249
*1669 FILLER_0_27_260
*1670 FILLER_0_27_264
*1671 FILLER_0_27_295
*1672 FILLER_0_27_3
*1673 FILLER_0_27_322
*1674 FILLER_0_27_33
*1675 FILLER_0_27_332
*1676 FILLER_0_27_337
*1677 FILLER_0_27_349
*1678 FILLER_0_27_45
*1679 FILLER_0_27_53
*1680 FILLER_0_27_65
*1681 FILLER_0_27_7
*1682 FILLER_0_27_85
*1683 FILLER_0_27_93
*1684 FILLER_0_28_108
*1685 FILLER_0_28_115
*1686 FILLER_0_28_121
*1687 FILLER_0_28_134
*1688 FILLER_0_28_141
*1689 FILLER_0_28_15
*1690 FILLER_0_28_156
*1691 FILLER_0_28_185
*1692 FILLER_0_28_192
*1693 FILLER_0_28_204
*1694 FILLER_0_28_226
*1695 FILLER_0_28_230
*1696 FILLER_0_28_247
*1697 FILLER_0_28_251
*1698 FILLER_0_28_27
*1699 FILLER_0_28_271
*1700 FILLER_0_28_279
*1701 FILLER_0_28_283
*1702 FILLER_0_28_29
*1703 FILLER_0_28_292
*1704 FILLER_0_28_3
*1705 FILLER_0_28_312
*1706 FILLER_0_28_324
*1707 FILLER_0_28_330
*1708 FILLER_0_28_350
*1709 FILLER_0_28_41
*1710 FILLER_0_28_49
*1711 FILLER_0_28_63
*1712 FILLER_0_28_74
*1713 FILLER_0_28_78
*1714 FILLER_0_28_85
*1715 FILLER_0_29_113
*1716 FILLER_0_29_119
*1717 FILLER_0_29_12
*1718 FILLER_0_29_123
*1719 FILLER_0_29_132
*1720 FILLER_0_29_147
*1721 FILLER_0_29_153
*1722 FILLER_0_29_157
*1723 FILLER_0_29_165
*1724 FILLER_0_29_169
*1725 FILLER_0_29_181
*1726 FILLER_0_29_185
*1727 FILLER_0_29_189
*1728 FILLER_0_29_20
*1729 FILLER_0_29_201
*1730 FILLER_0_29_209
*1731 FILLER_0_29_217
*1732 FILLER_0_29_223
*1733 FILLER_0_29_225
*1734 FILLER_0_29_233
*1735 FILLER_0_29_237
*1736 FILLER_0_29_241
*1737 FILLER_0_29_251
*1738 FILLER_0_29_255
*1739 FILLER_0_29_261
*1740 FILLER_0_29_265
*1741 FILLER_0_29_277
*1742 FILLER_0_29_290
*1743 FILLER_0_29_294
*1744 FILLER_0_29_3
*1745 FILLER_0_29_304
*1746 FILLER_0_29_31
*1747 FILLER_0_29_321
*1748 FILLER_0_29_335
*1749 FILLER_0_29_337
*1750 FILLER_0_29_349
*1751 FILLER_0_29_52
*1752 FILLER_0_29_73
*1753 FILLER_0_29_82
*1754 FILLER_0_29_86
*1755 FILLER_0_2_111
*1756 FILLER_0_2_115
*1757 FILLER_0_2_124
*1758 FILLER_0_2_136
*1759 FILLER_0_2_141
*1760 FILLER_0_2_15
*1761 FILLER_0_2_157
*1762 FILLER_0_2_169
*1763 FILLER_0_2_177
*1764 FILLER_0_2_187
*1765 FILLER_0_2_195
*1766 FILLER_0_2_205