*SPEF "ieee 1481-1999"
*DESIGN "tt_um_topModuleKA"
*DATE "11:11:11 Fri 11 11, 1111"
*VENDOR "OpenRCX"
*PROGRAM "Parallel Extraction"
*VERSION "1.0"
*DESIGN_FLOW "NAME_SCOPE LOCAL" "PIN_CAP NONE"
*DIVIDER /
*DELIMITER :
*BUS_DELIMITER []
*T_UNIT 1 NS
*C_UNIT 1 PF
*R_UNIT 1 OHM
*L_UNIT 1 HENRY

*NAME_MAP
*3 clk
*4 ena
*5 rst_n
*6 ui_in[0]
*7 ui_in[1]
*8 ui_in[2]
*9 ui_in[3]
*10 ui_in[4]
*11 ui_in[5]
*12 ui_in[6]
*13 ui_in[7]
*14 uio_in[0]
*15 uio_in[1]
*16 uio_in[2]
*17 uio_in[3]
*18 uio_in[4]
*19 uio_in[5]
*20 uio_in[6]
*21 uio_in[7]
*22 net14
*23 net15
*24 net16
*25 net17
*26 net18
*27 net19
*28 net20
*29 net21
*30 uio_out[0]
*31 uio_out[1]
*32 uio_out[2]
*33 uio_out[3]
*34 uio_out[4]
*35 net11
*36 net12
*37 net13
*38 uo_out[0]
*39 uo_out[1]
*40 uo_out[2]
*41 uo_out[3]
*42 uo_out[4]
*43 uo_out[5]
*44 uo_out[6]
*45 uo_out[7]
*46 _000_
*47 _001_
*48 _002_
*49 _003_
*50 _004_
*51 _005_
*52 _006_
*53 _007_
*54 _008_
*55 _009_
*56 _010_
*57 _011_
*58 _012_
*59 _013_
*60 _014_
*61 _015_
*62 _016_
*63 _017_
*64 _018_
*65 _019_
*66 _020_
*67 _021_
*68 _022_
*69 _023_
*70 _024_
*71 _025_
*72 _026_
*73 _027_
*74 _028_
*75 _029_
*76 _030_
*77 _031_
*78 _032_
*79 _033_
*80 _034_
*81 _035_
*82 _036_
*83 _037_
*84 _038_
*85 _039_
*86 _040_
*87 _041_
*88 _042_
*89 _043_
*90 _044_
*91 _045_
*92 _046_
*93 _047_
*94 _048_
*95 _049_
*96 _050_
*97 _051_
*98 _052_
*99 _053_
*100 _054_
*101 _055_
*102 _056_
*103 _057_
*104 _058_
*105 _059_
*106 _060_
*107 _061_
*108 _062_
*109 _063_
*110 _064_
*111 _065_
*112 _066_
*113 _067_
*114 _068_
*115 _069_
*116 _070_
*117 _071_
*118 _072_
*119 _073_
*120 _074_
*121 _075_
*122 _076_
*123 _077_
*124 _078_
*125 _079_
*126 _080_
*127 _081_
*128 _082_
*129 _083_
*130 _084_
*131 _085_
*132 _086_
*133 _087_
*134 _088_
*135 _089_
*136 _090_
*137 _091_
*138 _092_
*139 _093_
*140 _094_
*141 _095_
*142 _096_
*143 _097_
*144 _098_
*145 _099_
*146 _100_
*147 _101_
*148 _102_
*149 _103_
*150 _104_
*151 _105_
*152 _106_
*153 _107_
*154 _108_
*155 _109_
*156 _110_
*157 _111_
*158 _112_
*159 _113_
*160 _114_
*161 _115_
*162 _116_
*163 _117_
*164 _118_
*165 _119_
*166 _120_
*167 _121_
*168 _122_
*169 _123_
*170 _124_
*171 _125_
*172 _126_
*173 _127_
*174 _128_
*175 _129_
*176 _130_
*177 _131_
*178 _132_
*179 _133_
*180 _134_
*181 _135_
*182 _136_
*183 _137_
*184 _138_
*185 _139_
*186 _140_
*187 _141_
*188 _142_
*189 _143_
*190 _144_
*191 _145_
*192 _146_
*193 _147_
*194 _148_
*195 _149_
*196 _150_
*197 _151_
*198 _152_
*199 _153_
*200 _154_
*201 _155_
*202 _156_
*203 _157_
*204 _158_
*205 _159_
*206 _160_
*207 _161_
*208 _162_
*209 _163_
*210 _164_
*211 _165_
*212 _166_
*213 _167_
*214 _168_
*215 _169_
*216 _170_
*217 _171_
*218 _172_
*219 _173_
*220 _174_
*221 _175_
*222 _176_
*223 _177_
*224 _178_
*225 _179_
*226 _180_
*227 _181_
*228 _182_
*229 _183_
*230 _184_
*231 _185_
*232 _186_
*233 _187_
*234 _188_
*235 _189_
*236 _190_
*237 _191_
*238 _192_
*239 _193_
*240 _194_
*241 _195_
*242 _196_
*243 _197_
*244 _198_
*245 _199_
*246 _200_
*247 _201_
*248 _202_
*249 _203_
*250 _204_
*251 _205_
*252 _206_
*253 _207_
*254 _208_
*255 _209_
*256 _210_
*257 _211_
*258 _212_
*259 _213_
*260 _214_
*261 _215_
*262 _216_
*263 _217_
*264 _218_
*265 _219_
*266 _220_
*267 _221_
*268 _222_
*269 _223_
*270 _224_
*271 _225_
*272 _226_
*273 _227_
*274 _228_
*275 _229_
*276 _230_
*277 _231_
*278 _232_
*279 _233_
*280 _234_
*281 _235_
*282 _236_
*283 _237_
*284 _238_
*285 _239_
*286 _240_
*287 _241_
*288 _242_
*289 _243_
*290 _244_
*291 _245_
*292 _246_
*293 _247_
*294 _248_
*295 _249_
*296 _250_
*297 clknet_0_clk
*298 clknet_2_0__leaf_clk
*299 clknet_2_1__leaf_clk
*300 clknet_2_2__leaf_clk
*301 clknet_2_3__leaf_clk
*302 lif1\.spike
*303 lif1\.state\[0\]
*304 lif1\.state\[1\]
*305 lif1\.state\[2\]
*306 lif1\.state\[3\]
*307 lif1\.state\[4\]
*308 lif1\.state\[5\]
*309 lif1\.state\[6\]
*310 lif1\.state\[7\]
*311 lif2\.spike
*312 lif2\.state\[0\]
*313 lif2\.state\[1\]
*314 lif2\.state\[2\]
*315 lif2\.state\[3\]
*316 lif2\.state\[4\]
*317 lif2\.state\[5\]
*318 lif2\.state\[6\]
*319 lif2\.state\[7\]
*320 lif3\.spike
*321 lif3\.state\[0\]
*322 lif3\.state\[1\]
*323 lif3\.state\[2\]
*324 lif3\.state\[3\]
*325 lif3\.state\[4\]
*326 lif3\.state\[5\]
*327 lif3\.state\[6\]
*328 lif3\.state\[7\]
*329 lif4\.spike
*330 lif4\.state\[0\]
*331 lif4\.state\[1\]
*332 lif4\.state\[2\]
*333 lif4\.state\[3\]
*334 lif4\.state\[4\]
*335 lif4\.state\[5\]
*336 lif4\.state\[6\]
*337 lif4\.state\[7\]
*338 lif5\.spike
*339 lif5\.state\[0\]
*340 lif5\.state\[1\]
*341 lif5\.state\[2\]
*342 lif5\.state\[3\]
*343 lif5\.state\[4\]
*344 lif5\.state\[5\]
*345 lif5\.state\[6\]
*346 lif5\.state\[7\]
*347 net1
*348 net10
*349 net2
*350 net22
*351 net23
*352 net24
*353 net25
*354 net26
*355 net27
*356 net28
*357 net29
*358 net3
*359 net30
*360 net31
*361 net32
*362 net33
*363 net34
*364 net35
*365 net36
*366 net37
*367 net4
*368 net5
*369 net6
*370 net7
*371 net8
*372 net9
*373 random\.d0
*374 random\.ff0\.q
*375 random\.ffrnd\[1\]\.q
*376 random\.ffrnd\[2\]\.q
*377 random\.ffrnd\[3\]\.q
*378 random\.ffrnd\[4\]\.q
*379 random\.ffrnd\[5\]\.q
*380 random\.ffrnd\[6\]\.q
*381 random\.ffrnd\[7\]\.q
*382 ANTENNA_1
*383 FILLER_0_0_109
*384 FILLER_0_0_113
*385 FILLER_0_0_125
*386 FILLER_0_0_137
*387 FILLER_0_0_141
*388 FILLER_0_0_15
*389 FILLER_0_0_153
*390 FILLER_0_0_165
*391 FILLER_0_0_169
*392 FILLER_0_0_181
*393 FILLER_0_0_193
*394 FILLER_0_0_197
*395 FILLER_0_0_209
*396 FILLER_0_0_221
*397 FILLER_0_0_225
*398 FILLER_0_0_237
*399 FILLER_0_0_249
*400 FILLER_0_0_253
*401 FILLER_0_0_265
*402 FILLER_0_0_27
*403 FILLER_0_0_277
*404 FILLER_0_0_281
*405 FILLER_0_0_29
*406 FILLER_0_0_293
*407 FILLER_0_0_3
*408 FILLER_0_0_305
*409 FILLER_0_0_309
*410 FILLER_0_0_321
*411 FILLER_0_0_333
*412 FILLER_0_0_337
*413 FILLER_0_0_349
*414 FILLER_0_0_41
*415 FILLER_0_0_53
*416 FILLER_0_0_57
*417 FILLER_0_0_69
*418 FILLER_0_0_81
*419 FILLER_0_0_85
*420 FILLER_0_0_97
*421 FILLER_0_10_109
*422 FILLER_0_10_121
*423 FILLER_0_10_133
*424 FILLER_0_10_139
*425 FILLER_0_10_141
*426 FILLER_0_10_15
*427 FILLER_0_10_153
*428 FILLER_0_10_165
*429 FILLER_0_10_177
*430 FILLER_0_10_189
*431 FILLER_0_10_195
*432 FILLER_0_10_197
*433 FILLER_0_10_209
*434 FILLER_0_10_221
*435 FILLER_0_10_233
*436 FILLER_0_10_245
*437 FILLER_0_10_251
*438 FILLER_0_10_253
*439 FILLER_0_10_265
*440 FILLER_0_10_27
*441 FILLER_0_10_277
*442 FILLER_0_10_289
*443 FILLER_0_10_29
*444 FILLER_0_10_3
*445 FILLER_0_10_301
*446 FILLER_0_10_307
*447 FILLER_0_10_309
*448 FILLER_0_10_321
*449 FILLER_0_10_333
*450 FILLER_0_10_345
*451 FILLER_0_10_41
*452 FILLER_0_10_53
*453 FILLER_0_10_65
*454 FILLER_0_10_77
*455 FILLER_0_10_83
*456 FILLER_0_10_85
*457 FILLER_0_10_97
*458 FILLER_0_11_105
*459 FILLER_0_11_111
*460 FILLER_0_11_113
*461 FILLER_0_11_125
*462 FILLER_0_11_137
*463 FILLER_0_11_149
*464 FILLER_0_11_15
*465 FILLER_0_11_161
*466 FILLER_0_11_167
*467 FILLER_0_11_169
*468 FILLER_0_11_181
*469 FILLER_0_11_193
*470 FILLER_0_11_205
*471 FILLER_0_11_217
*472 FILLER_0_11_223
*473 FILLER_0_11_225
*474 FILLER_0_11_237
*475 FILLER_0_11_249
*476 FILLER_0_11_261
*477 FILLER_0_11_27
*478 FILLER_0_11_273
*479 FILLER_0_11_279
*480 FILLER_0_11_281
*481 FILLER_0_11_293
*482 FILLER_0_11_3
*483 FILLER_0_11_305
*484 FILLER_0_11_317
*485 FILLER_0_11_329
*486 FILLER_0_11_335
*487 FILLER_0_11_337
*488 FILLER_0_11_349
*489 FILLER_0_11_39
*490 FILLER_0_11_51
*491 FILLER_0_11_55
*492 FILLER_0_11_57
*493 FILLER_0_11_69
*494 FILLER_0_11_81
*495 FILLER_0_11_93
*496 FILLER_0_12_109
*497 FILLER_0_12_121
*498 FILLER_0_12_133
*499 FILLER_0_12_139
*500 FILLER_0_12_141
*501 FILLER_0_12_15
*502 FILLER_0_12_153
*503 FILLER_0_12_165
*504 FILLER_0_12_177
*505 FILLER_0_12_189
*506 FILLER_0_12_195
*507 FILLER_0_12_197
*508 FILLER_0_12_209
*509 FILLER_0_12_221
*510 FILLER_0_12_233
*511 FILLER_0_12_245
*512 FILLER_0_12_251
*513 FILLER_0_12_253
*514 FILLER_0_12_265
*515 FILLER_0_12_27
*516 FILLER_0_12_277
*517 FILLER_0_12_289
*518 FILLER_0_12_29
*519 FILLER_0_12_3
*520 FILLER_0_12_301
*521 FILLER_0_12_307
*522 FILLER_0_12_309
*523 FILLER_0_12_321
*524 FILLER_0_12_333
*525 FILLER_0_12_345
*526 FILLER_0_12_41
*527 FILLER_0_12_53
*528 FILLER_0_12_65
*529 FILLER_0_12_77
*530 FILLER_0_12_83
*531 FILLER_0_12_85
*532 FILLER_0_12_97
*533 FILLER_0_13_105
*534 FILLER_0_13_111
*535 FILLER_0_13_113
*536 FILLER_0_13_125
*537 FILLER_0_13_137
*538 FILLER_0_13_149
*539 FILLER_0_13_15
*540 FILLER_0_13_161
*541 FILLER_0_13_167
*542 FILLER_0_13_169
*543 FILLER_0_13_181
*544 FILLER_0_13_193
*545 FILLER_0_13_205
*546 FILLER_0_13_217
*547 FILLER_0_13_223
*548 FILLER_0_13_225
*549 FILLER_0_13_237
*550 FILLER_0_13_249
*551 FILLER_0_13_261
*552 FILLER_0_13_27
*553 FILLER_0_13_273
*554 FILLER_0_13_279
*555 FILLER_0_13_281
*556 FILLER_0_13_293
*557 FILLER_0_13_3
*558 FILLER_0_13_305
*559 FILLER_0_13_317
*560 FILLER_0_13_329
*561 FILLER_0_13_335
*562 FILLER_0_13_337
*563 FILLER_0_13_349
*564 FILLER_0_13_39
*565 FILLER_0_13_51
*566 FILLER_0_13_55
*567 FILLER_0_13_57
*568 FILLER_0_13_69
*569 FILLER_0_13_81
*570 FILLER_0_13_93
*571 FILLER_0_14_109
*572 FILLER_0_14_121
*573 FILLER_0_14_133
*574 FILLER_0_14_139
*575 FILLER_0_14_141
*576 FILLER_0_14_15
*577 FILLER_0_14_153
*578 FILLER_0_14_165
*579 FILLER_0_14_177
*580 FILLER_0_14_189
*581 FILLER_0_14_195
*582 FILLER_0_14_197
*583 FILLER_0_14_209
*584 FILLER_0_14_221
*585 FILLER_0_14_233
*586 FILLER_0_14_245
*587 FILLER_0_14_251
*588 FILLER_0_14_253
*589 FILLER_0_14_265
*590 FILLER_0_14_27
*591 FILLER_0_14_277
*592 FILLER_0_14_289
*593 FILLER_0_14_29
*594 FILLER_0_14_3
*595 FILLER_0_14_301
*596 FILLER_0_14_307
*597 FILLER_0_14_309
*598 FILLER_0_14_321
*599 FILLER_0_14_333
*600 FILLER_0_14_345
*601 FILLER_0_14_41
*602 FILLER_0_14_53
*603 FILLER_0_14_65
*604 FILLER_0_14_77
*605 FILLER_0_14_83
*606 FILLER_0_14_85
*607 FILLER_0_14_97
*608 FILLER_0_15_105
*609 FILLER_0_15_111
*610 FILLER_0_15_113
*611 FILLER_0_15_125
*612 FILLER_0_15_137
*613 FILLER_0_15_149
*614 FILLER_0_15_15
*615 FILLER_0_15_161
*616 FILLER_0_15_167
*617 FILLER_0_15_169
*618 FILLER_0_15_181
*619 FILLER_0_15_193
*620 FILLER_0_15_205
*621 FILLER_0_15_217
*622 FILLER_0_15_223
*623 FILLER_0_15_225
*624 FILLER_0_15_237
*625 FILLER_0_15_249
*626 FILLER_0_15_261
*627 FILLER_0_15_27
*628 FILLER_0_15_273
*629 FILLER_0_15_279
*630 FILLER_0_15_281
*631 FILLER_0_15_293
*632 FILLER_0_15_3
*633 FILLER_0_15_305
*634 FILLER_0_15_317
*635 FILLER_0_15_329
*636 FILLER_0_15_335
*637 FILLER_0_15_337
*638 FILLER_0_15_349
*639 FILLER_0_15_39
*640 FILLER_0_15_51
*641 FILLER_0_15_55
*642 FILLER_0_15_57
*643 FILLER_0_15_69
*644 FILLER_0_15_81
*645 FILLER_0_15_93
*646 FILLER_0_16_109
*647 FILLER_0_16_121
*648 FILLER_0_16_133
*649 FILLER_0_16_139
*650 FILLER_0_16_141
*651 FILLER_0_16_15
*652 FILLER_0_16_153
*653 FILLER_0_16_165
*654 FILLER_0_16_177
*655 FILLER_0_16_189
*656 FILLER_0_16_195
*657 FILLER_0_16_197
*658 FILLER_0_16_209
*659 FILLER_0_16_221
*660 FILLER_0_16_233
*661 FILLER_0_16_245
*662 FILLER_0_16_251
*663 FILLER_0_16_253
*664 FILLER_0_16_265
*665 FILLER_0_16_27
*666 FILLER_0_16_277
*667 FILLER_0_16_289
*668 FILLER_0_16_29
*669 FILLER_0_16_3
*670 FILLER_0_16_301
*671 FILLER_0_16_307
*672 FILLER_0_16_309
*673 FILLER_0_16_321
*674 FILLER_0_16_333
*675 FILLER_0_16_345
*676 FILLER_0_16_41
*677 FILLER_0_16_53
*678 FILLER_0_16_65
*679 FILLER_0_16_77
*680 FILLER_0_16_83
*681 FILLER_0_16_85
*682 FILLER_0_16_97
*683 FILLER_0_17_105
*684 FILLER_0_17_111
*685 FILLER_0_17_113
*686 FILLER_0_17_125
*687 FILLER_0_17_137
*688 FILLER_0_17_149
*689 FILLER_0_17_15
*690 FILLER_0_17_161
*691 FILLER_0_17_167
*692 FILLER_0_17_169
*693 FILLER_0_17_181
*694 FILLER_0_17_193
*695 FILLER_0_17_205
*696 FILLER_0_17_217
*697 FILLER_0_17_223
*698 FILLER_0_17_225
*699 FILLER_0_17_237
*700 FILLER_0_17_249
*701 FILLER_0_17_261
*702 FILLER_0_17_27
*703 FILLER_0_17_273
*704 FILLER_0_17_279
*705 FILLER_0_17_281
*706 FILLER_0_17_293
*707 FILLER_0_17_3
*708 FILLER_0_17_305
*709 FILLER_0_17_317
*710 FILLER_0_17_329
*711 FILLER_0_17_335
*712 FILLER_0_17_337
*713 FILLER_0_17_349
*714 FILLER_0_17_39
*715 FILLER_0_17_51
*716 FILLER_0_17_55
*717 FILLER_0_17_57
*718 FILLER_0_17_69
*719 FILLER_0_17_81
*720 FILLER_0_17_93
*721 FILLER_0_18_109
*722 FILLER_0_18_121
*723 FILLER_0_18_133
*724 FILLER_0_18_139
*725 FILLER_0_18_141
*726 FILLER_0_18_15
*727 FILLER_0_18_153
*728 FILLER_0_18_165
*729 FILLER_0_18_177
*730 FILLER_0_18_189
*731 FILLER_0_18_195
*732 FILLER_0_18_197
*733 FILLER_0_18_209
*734 FILLER_0_18_221
*735 FILLER_0_18_233
*736 FILLER_0_18_245
*737 FILLER_0_18_251
*738 FILLER_0_18_253
*739 FILLER_0_18_265
*740 FILLER_0_18_27
*741 FILLER_0_18_277
*742 FILLER_0_18_289
*743 FILLER_0_18_29
*744 FILLER_0_18_3
*745 FILLER_0_18_301
*746 FILLER_0_18_307
*747 FILLER_0_18_309
*748 FILLER_0_18_321
*749 FILLER_0_18_333
*750 FILLER_0_18_345
*751 FILLER_0_18_41
*752 FILLER_0_18_53
*753 FILLER_0_18_65
*754 FILLER_0_18_77
*755 FILLER_0_18_83
*756 FILLER_0_18_85
*757 FILLER_0_18_97
*758 FILLER_0_19_105
*759 FILLER_0_19_111
*760 FILLER_0_19_113
*761 FILLER_0_19_125
*762 FILLER_0_19_137
*763 FILLER_0_19_149
*764 FILLER_0_19_15
*765 FILLER_0_19_161
*766 FILLER_0_19_167
*767 FILLER_0_19_169
*768 FILLER_0_19_181
*769 FILLER_0_19_193
*770 FILLER_0_19_205
*771 FILLER_0_19_217
*772 FILLER_0_19_223
*773 FILLER_0_19_225
*774 FILLER_0_19_237
*775 FILLER_0_19_249
*776 FILLER_0_19_261
*777 FILLER_0_19_27
*778 FILLER_0_19_273
*779 FILLER_0_19_279
*780 FILLER_0_19_281
*781 FILLER_0_19_293
*782 FILLER_0_19_3
*783 FILLER_0_19_305
*784 FILLER_0_19_317
*785 FILLER_0_19_329
*786 FILLER_0_19_335
*787 FILLER_0_19_337
*788 FILLER_0_19_349
*789 FILLER_0_19_39
*790 FILLER_0_19_51
*791 FILLER_0_19_55
*792 FILLER_0_19_57
*793 FILLER_0_19_69
*794 FILLER_0_19_81
*795 FILLER_0_19_93
*796 FILLER_0_1_105
*797 FILLER_0_1_111
*798 FILLER_0_1_113
*799 FILLER_0_1_125
*800 FILLER_0_1_137
*801 FILLER_0_1_149
*802 FILLER_0_1_15
*803 FILLER_0_1_161
*804 FILLER_0_1_167
*805 FILLER_0_1_169
*806 FILLER_0_1_181
*807 FILLER_0_1_193
*808 FILLER_0_1_205
*809 FILLER_0_1_217
*810 FILLER_0_1_223
*811 FILLER_0_1_225
*812 FILLER_0_1_237
*813 FILLER_0_1_249
*814 FILLER_0_1_261
*815 FILLER_0_1_27
*816 FILLER_0_1_273
*817 FILLER_0_1_279
*818 FILLER_0_1_281
*819 FILLER_0_1_293
*820 FILLER_0_1_3
*821 FILLER_0_1_305
*822 FILLER_0_1_317
*823 FILLER_0_1_329
*824 FILLER_0_1_335
*825 FILLER_0_1_337
*826 FILLER_0_1_349
*827 FILLER_0_1_39
*828 FILLER_0_1_51
*829 FILLER_0_1_55
*830 FILLER_0_1_57
*831 FILLER_0_1_69
*832 FILLER_0_1_81
*833 FILLER_0_1_93
*834 FILLER_0_20_109
*835 FILLER_0_20_121
*836 FILLER_0_20_133
*837 FILLER_0_20_139
*838 FILLER_0_20_141
*839 FILLER_0_20_15
*840 FILLER_0_20_153
*841 FILLER_0_20_165
*842 FILLER_0_20_177
*843 FILLER_0_20_189
*844 FILLER_0_20_195
*845 FILLER_0_20_197
*846 FILLER_0_20_209
*847 FILLER_0_20_221
*848 FILLER_0_20_233
*849 FILLER_0_20_245
*850 FILLER_0_20_251
*851 FILLER_0_20_253
*852 FILLER_0_20_265
*853 FILLER_0_20_27
*854 FILLER_0_20_277
*855 FILLER_0_20_289
*856 FILLER_0_20_29
*857 FILLER_0_20_3
*858 FILLER_0_20_301
*859 FILLER_0_20_307
*860 FILLER_0_20_309
*861 FILLER_0_20_321
*862 FILLER_0_20_333
*863 FILLER_0_20_345
*864 FILLER_0_20_41
*865 FILLER_0_20_53
*866 FILLER_0_20_65
*867 FILLER_0_20_77
*868 FILLER_0_20_83
*869 FILLER_0_20_85
*870 FILLER_0_20_97
*871 FILLER_0_21_105
*872 FILLER_0_21_111
*873 FILLER_0_21_113
*874 FILLER_0_21_125
*875 FILLER_0_21_137
*876 FILLER_0_21_149
*877 FILLER_0_21_15
*878 FILLER_0_21_161
*879 FILLER_0_21_167
*880 FILLER_0_21_169
*881 FILLER_0_21_181
*882 FILLER_0_21_193
*883 FILLER_0_21_205
*884 FILLER_0_21_217
*885 FILLER_0_21_223
*886 FILLER_0_21_225
*887 FILLER_0_21_237
*888 FILLER_0_21_249
*889 FILLER_0_21_261
*890 FILLER_0_21_27
*891 FILLER_0_21_273
*892 FILLER_0_21_279
*893 FILLER_0_21_281
*894 FILLER_0_21_293
*895 FILLER_0_21_3
*896 FILLER_0_21_305
*897 FILLER_0_21_317
*898 FILLER_0_21_329
*899 FILLER_0_21_335
*900 FILLER_0_21_337
*901 FILLER_0_21_349
*902 FILLER_0_21_39
*903 FILLER_0_21_51
*904 FILLER_0_21_55
*905 FILLER_0_21_57
*906 FILLER_0_21_69
*907 FILLER_0_21_81
*908 FILLER_0_21_93
*909 FILLER_0_22_109
*910 FILLER_0_22_121
*911 FILLER_0_22_133
*912 FILLER_0_22_139
*913 FILLER_0_22_141
*914 FILLER_0_22_149
*915 FILLER_0_22_15
*916 FILLER_0_22_161
*917 FILLER_0_22_173
*918 FILLER_0_22_181
*919 FILLER_0_22_192
*920 FILLER_0_22_197
*921 FILLER_0_22_209
*922 FILLER_0_22_221
*923 FILLER_0_22_233
*924 FILLER_0_22_245
*925 FILLER_0_22_251
*926 FILLER_0_22_253
*927 FILLER_0_22_265
*928 FILLER_0_22_27
*929 FILLER_0_22_277
*930 FILLER_0_22_289
*931 FILLER_0_22_29
*932 FILLER_0_22_3
*933 FILLER_0_22_301
*934 FILLER_0_22_307
*935 FILLER_0_22_309
*936 FILLER_0_22_321
*937 FILLER_0_22_333
*938 FILLER_0_22_345
*939 FILLER_0_22_41
*940 FILLER_0_22_53
*941 FILLER_0_22_65
*942 FILLER_0_22_77
*943 FILLER_0_22_83
*944 FILLER_0_22_85
*945 FILLER_0_22_97
*946 FILLER_0_23_105
*947 FILLER_0_23_111
*948 FILLER_0_23_113
*949 FILLER_0_23_122
*950 FILLER_0_23_134
*951 FILLER_0_23_148
*952 FILLER_0_23_15
*953 FILLER_0_23_155
*954 FILLER_0_23_161
*955 FILLER_0_23_167
*956 FILLER_0_23_185
*957 FILLER_0_23_196
*958 FILLER_0_23_200
*959 FILLER_0_23_220
*960 FILLER_0_23_241
*961 FILLER_0_23_253
*962 FILLER_0_23_265
*963 FILLER_0_23_27
*964 FILLER_0_23_277
*965 FILLER_0_23_281
*966 FILLER_0_23_293
*967 FILLER_0_23_3
*968 FILLER_0_23_305
*969 FILLER_0_23_317
*970 FILLER_0_23_329
*971 FILLER_0_23_335
*972 FILLER_0_23_337
*973 FILLER_0_23_349
*974 FILLER_0_23_39
*975 FILLER_0_23_51
*976 FILLER_0_23_55
*977 FILLER_0_23_57
*978 FILLER_0_23_69
*979 FILLER_0_23_81
*980 FILLER_0_23_93
*981 FILLER_0_24_109
*982 FILLER_0_24_115
*983 FILLER_0_24_132
*984 FILLER_0_24_15
*985 FILLER_0_24_155
*986 FILLER_0_24_177
*987 FILLER_0_24_194
*988 FILLER_0_24_221
*989 FILLER_0_24_225
*990 FILLER_0_24_229
*991 FILLER_0_24_237
*992 FILLER_0_24_243
*993 FILLER_0_24_251
*994 FILLER_0_24_258
*995 FILLER_0_24_27
*996 FILLER_0_24_270
*997 FILLER_0_24_282
*998 FILLER_0_24_29
*999 FILLER_0_24_294
*1000 FILLER_0_24_3
*1001 FILLER_0_24_306
*1002 FILLER_0_24_309
*1003 FILLER_0_24_321
*1004 FILLER_0_24_333
*1005 FILLER_0_24_345
*1006 FILLER_0_24_41
*1007 FILLER_0_24_53
*1008 FILLER_0_24_65
*1009 FILLER_0_24_77
*1010 FILLER_0_24_83
*1011 FILLER_0_24_85
*1012 FILLER_0_24_97
*1013 FILLER_0_25_105
*1014 FILLER_0_25_111
*1015 FILLER_0_25_113
*1016 FILLER_0_25_121
*1017 FILLER_0_25_133
*1018 FILLER_0_25_141
*1019 FILLER_0_25_147
*1020 FILLER_0_25_15
*1021 FILLER_0_25_159
*1022 FILLER_0_25_165
*1023 FILLER_0_25_175
*1024 FILLER_0_25_183
*1025 FILLER_0_25_191
*1026 FILLER_0_25_195
*1027 FILLER_0_25_215
*1028 FILLER_0_25_232
*1029 FILLER_0_25_27
*1030 FILLER_0_25_274
*1031 FILLER_0_25_281
*1032 FILLER_0_25_293
*1033 FILLER_0_25_3
*1034 FILLER_0_25_305
*1035 FILLER_0_25_317
*1036 FILLER_0_25_329
*1037 FILLER_0_25_335
*1038 FILLER_0_25_337
*1039 FILLER_0_25_349
*1040 FILLER_0_25_39
*1041 FILLER_0_25_51
*1042 FILLER_0_25_55
*1043 FILLER_0_25_57
*1044 FILLER_0_25_69
*1045 FILLER_0_25_81
*1046 FILLER_0_25_93
*1047 FILLER_0_26_121
*1048 FILLER_0_26_137
*1049 FILLER_0_26_15
*1050 FILLER_0_26_158
*1051 FILLER_0_26_174
*1052 FILLER_0_26_187
*1053 FILLER_0_26_195
*1054 FILLER_0_26_197
*1055 FILLER_0_26_203
*1056 FILLER_0_26_211
*1057 FILLER_0_26_223
*1058 FILLER_0_26_238
*1059 FILLER_0_26_244
*1060 FILLER_0_26_253
*1061 FILLER_0_26_265
*1062 FILLER_0_26_27
*1063 FILLER_0_26_29
*1064 FILLER_0_26_3
*1065 FILLER_0_26_306
*1066 FILLER_0_26_309
*1067 FILLER_0_26_321
*1068 FILLER_0_26_333
*1069 FILLER_0_26_345
*1070 FILLER_0_26_41
*1071 FILLER_0_26_53
*1072 FILLER_0_26_65
*1073 FILLER_0_26_77
*1074 FILLER_0_26_83
*1075 FILLER_0_26_85
*1076 FILLER_0_26_97
*1077 FILLER_0_27_110
*1078 FILLER_0_27_113
*1079 FILLER_0_27_125
*1080 FILLER_0_27_143
*1081 FILLER_0_27_15
*1082 FILLER_0_27_155
*1083 FILLER_0_27_167
*1084 FILLER_0_27_169
*1085 FILLER_0_27_173
*1086 FILLER_0_27_190
*1087 FILLER_0_27_196
*1088 FILLER_0_27_203
*1089 FILLER_0_27_213
*1090 FILLER_0_27_221
*1091 FILLER_0_27_230
*1092 FILLER_0_27_236
*1093 FILLER_0_27_253
*1094 FILLER_0_27_261
*1095 FILLER_0_27_27
*1096 FILLER_0_27_272
*1097 FILLER_0_27_281
*1098 FILLER_0_27_287
*1099 FILLER_0_27_291
*1100 FILLER_0_27_3
*1101 FILLER_0_27_303
*1102 FILLER_0_27_315
*1103 FILLER_0_27_327
*1104 FILLER_0_27_335
*1105 FILLER_0_27_337
*1106 FILLER_0_27_349
*1107 FILLER_0_27_39
*1108 FILLER_0_27_51
*1109 FILLER_0_27_55
*1110 FILLER_0_27_57
*1111 FILLER_0_27_65
*1112 FILLER_0_27_87
*1113 FILLER_0_27_93
*1114 FILLER_0_28_104
*1115 FILLER_0_28_108
*1116 FILLER_0_28_112
*1117 FILLER_0_28_129
*1118 FILLER_0_28_138
*1119 FILLER_0_28_141
*1120 FILLER_0_28_15
*1121 FILLER_0_28_153
*1122 FILLER_0_28_164
*1123 FILLER_0_28_172
*1124 FILLER_0_28_177
*1125 FILLER_0_28_183
*1126 FILLER_0_28_195
*1127 FILLER_0_28_205
*1128 FILLER_0_28_214
*1129 FILLER_0_28_232
*1130 FILLER_0_28_248
*1131 FILLER_0_28_253
*1132 FILLER_0_28_27
*1133 FILLER_0_28_270
*1134 FILLER_0_28_278
*1135 FILLER_0_28_29
*1136 FILLER_0_28_294
*1137 FILLER_0_28_3
*1138 FILLER_0_28_306
*1139 FILLER_0_28_309
*1140 FILLER_0_28_321
*1141 FILLER_0_28_333
*1142 FILLER_0_28_345
*1143 FILLER_0_28_41
*1144 FILLER_0_28_53
*1145 FILLER_0_28_65
*1146 FILLER_0_28_77
*1147 FILLER_0_28_83
*1148 FILLER_0_28_85
*1149 FILLER_0_28_91
*1150 FILLER_0_29_111
*1151 FILLER_0_29_133
*1152 FILLER_0_29_137
*1153 FILLER_0_29_15
*1154 FILLER_0_29_166
*1155 FILLER_0_29_169
*1156 FILLER_0_29_185
*1157 FILLER_0_29_197
*1158 FILLER_0_29_219
*1159 FILLER_0_29_223
*1160 FILLER_0_29_251
*1161 FILLER_0_29_259
*1162 FILLER_0_29_27
*1163 FILLER_0_29_274
*1164 FILLER_0_29_281
*1165 FILLER_0_29_293
*1166 FILLER_0_29_3
*1167 FILLER_0_29_305
*1168 FILLER_0_29_317
*1169 FILLER_0_29_329
*1170 FILLER_0_29_335
*1171 FILLER_0_29_337
*1172 FILLER_0_29_349
*1173 FILLER_0_29_39
*1174 FILLER_0_29_51
*1175 FILLER_0_29_55
*1176 FILLER_0_29_57
*1177 FILLER_0_29_62
*1178 FILLER_0_29_70
*1179 FILLER_0_29_78
*1180 FILLER_0_29_82
*1181 FILLER_0_2_109
*1182 FILLER_0_2_121
*1183 FILLER_0_2_133
*1184 FILLER_0_2_139
*1185 FILLER_0_2_141
*1186 FILLER_0_2_15
*1187 FILLER_0_2_153
*1188 FILLER_0_2_165
*1189 FILLER_0_2_177
*1190 FILLER_0_2_189
*1191 FILLER_0_2_195
*1192 FILLER_0_2_197
*1193 FILLER_0_2_209
*1194 FILLER_0_2_221
*1195 FILLER_0_2_233
*1196 FILLER_0_2_245
*1197 FILLER_0_2_251
*1198 FILLER_0_2_253
*1199 FILLER_0_2_265
*1200 FILLER_0_2_27
*1201 FILLER_0_2_277
*1202 FILLER_0_2_289
*1203 FILLER_0_2_29
*1204 FILLER_0_2_3
*1205 FILLER_0_2_301
*1206 FILLER_0_2_307
*1207 FILLER_0_2_309
*1208 FILLER_0_2_321
*1209 FILLER_0_2_333
*1210 FILLER_0_2_345
*1211 FILLER_0_2_41
*1212 FILLER_0_2_53
*1213 FILLER_0_2_65
*1214 FILLER_0_2_77
*1215 FILLER_0_2_83
*1216 FILLER_0_2_85
*1217 FILLER_0_2_97
*1218 FILLER_0_30_104
*1219 FILLER_0_30_112
*1220 FILLER_0_30_134
*1221 FILLER_0_30_15
*1222 FILLER_0_30_150
*1223 FILLER_0_30_158
*1224 FILLER_0_30_162
*1225 FILLER_0_30_170
*1226 FILLER_0_30_188
*1227 FILLER_0_30_213
*1228 FILLER_0_30_225
*1229 FILLER_0_30_230
*1230 FILLER_0_30_235
*1231 FILLER_0_30_253
*1232 FILLER_0_30_259
*1233 FILLER_0_30_267
*1234 FILLER_0_30_27
*1235 FILLER_0_30_29
*1236 FILLER_0_30_298
*1237 FILLER_0_30_3
*1238 FILLER_0_30_309
*1239 FILLER_0_30_317
*1240 FILLER_0_30_327
*1241 FILLER_0_30_344
*1242 FILLER_0_30_350
*1243 FILLER_0_30_64
*1244 FILLER_0_30_83
*1245 FILLER_0_30_90
*1246 FILLER_0_31_101
*1247 FILLER_0_31_110
*1248 FILLER_0_31_113
*1249 FILLER_0_31_125
*1250 FILLER_0_31_15
*1251 FILLER_0_31_165
*1252 FILLER_0_31_205
*1253 FILLER_0_31_217
*1254 FILLER_0_31_223
*1255 FILLER_0_31_248
*1256 FILLER_0_31_266
*1257 FILLER_0_31_27
*1258 FILLER_0_31_273
*1259 FILLER_0_31_279
*1260 FILLER_0_31_281
*1261 FILLER_0_31_293
*1262 FILLER_0_31_3
*1263 FILLER_0_31_300
*1264 FILLER_0_31_31
*1265 FILLER_0_31_312
*1266 FILLER_0_31_319
*1267 FILLER_0_31_331
*1268 FILLER_0_31_335
*1269 FILLER_0_31_337
*1270 FILLER_0_31_349
*1271 FILLER_0_31_38
*1272 FILLER_0_31_54
*1273 FILLER_0_31_57
*1274 FILLER_0_31_69
*1275 FILLER_0_31_81
*1276 FILLER_0_31_89
*1277 FILLER_0_31_95
*1278 FILLER_0_32_100
*1279 FILLER_0_32_106
*1280 FILLER_0_32_118
*1281 FILLER_0_32_138
*1282 FILLER_0_32_141
*1283 FILLER_0_32_153
*1284 FILLER_0_32_161
*1285 FILLER_0_32_180
*1286 FILLER_0_32_186
*1287 FILLER_0_32_194
*1288 FILLER_0_32_197
*1289 FILLER_0_32_209
*1290 FILLER_0_32_214
*1291 FILLER_0_32_245
*1292 FILLER_0_32_25
*1293 FILLER_0_32_251
*1294 FILLER_0_32_253
*1295 FILLER_0_32_261
*1296 FILLER_0_32_268
*1297 FILLER_0_32_285
*1298 FILLER_0_32_29
*1299 FILLER_0_32_297
*1300 FILLER_0_32_3
*1301 FILLER_0_32_314
*1302 FILLER_0_32_320
*1303 FILLER_0_32_326
*1304 FILLER_0_32_338
*1305 FILLER_0_32_350
*1306 FILLER_0_32_36
*1307 FILLER_0_32_42
*1308 FILLER_0_32_85
*1309 FILLER_0_32_93
*1310 FILLER_0_33_100
*1311 FILLER_0_33_106
*1312 FILLER_0_33_113
*1313 FILLER_0_33_128
*1314 FILLER_0_33_140
*1315 FILLER_0_33_148
*1316 FILLER_0_33_159
*1317 FILLER_0_33_167
*1318 FILLER_0_33_175
*1319 FILLER_0_33_179
*1320 FILLER_0_33_188
*1321 FILLER_0_33_194
*1322 FILLER_0_33_204
*1323 FILLER_0_33_222
*1324 FILLER_0_33_233
*1325 FILLER_0_33_245
*1326 FILLER_0_33_25
*1327 FILLER_0_33_253
*1328 FILLER_0_33_261
*1329 FILLER_0_33_273
*1330 FILLER_0_33_29
*1331 FILLER_0_33_3
*1332 FILLER_0_33_301
*1333 FILLER_0_33_313
*1334 FILLER_0_33_337
*1335 FILLER_0_33_349
*1336 FILLER_0_33_36
*1337 FILLER_0_33_48
*1338 FILLER_0_33_57
*1339 FILLER_0_33_69
*1340 FILLER_0_33_80
*1341 FILLER_0_33_90
*1342 FILLER_0_34_15
*1343 FILLER_0_34_157
*1344 FILLER_0_34_161
*1345 FILLER_0_34_166
*1346 FILLER_0_34_170
*1347 FILLER_0_34_188
*1348 FILLER_0_34_202
*1349 FILLER_0_34_210
*1350 FILLER_0_34_227
*1351 FILLER_0_34_249
*1352 FILLER_0_34_253
*1353 FILLER_0_34_261
*1354 FILLER_0_34_269
*1355 FILLER_0_34_27
*1356 FILLER_0_34_273
*1357 FILLER_0_34_279
*1358 FILLER_0_34_287
*1359 FILLER_0_34_29
*1360 FILLER_0_34_299
*1361 FILLER_0_34_3
*1362 FILLER_0_34_307
*1363 FILLER_0_34_309
*1364 FILLER_0_34_313
*1365 FILLER_0_34_320
*1366 FILLER_0_34_332
*1367 FILLER_0_34_344
*1368 FILLER_0_34_350
*1369 FILLER_0_34_51
*1370 FILLER_0_34_75
*1371 FILLER_0_34_99
*1372 FILLER_0_35_109
*1373 FILLER_0_35_11
*1374 FILLER_0_35_113
*1375 FILLER_0_35_121
*1376 FILLER_0_35_137
*1377 FILLER_0_35_147
*1378 FILLER_0_35_155
*1379 FILLER_0_35_165
*1380 FILLER_0_35_175
*1381 FILLER_0_35_187
*1382 FILLER_0_35_198
*1383 FILLER_0_35_222
*1384 FILLER_0_35_225
*1385 FILLER_0_35_233
*1386 FILLER_0_35_240
*1387 FILLER_0_35_252
*1388 FILLER_0_35_258
*1389 FILLER_0_35_273
*1390 FILLER_0_35_295
*1391 FILLER_0_35_3
*1392 FILLER_0_35_311
*1393 FILLER_0_35_324
*1394 FILLER_0_35_337
*1395 FILLER_0_35_34
*1396 FILLER_0_35_349
*1397 FILLER_0_35_40
*1398 FILLER_0_35_53
*1399 FILLER_0_35_61
*1400 FILLER_0_35_73
*1401 FILLER_0_35_85
*1402 FILLER_0_35_97
*1403 FILLER_0_36_105
*1404 FILLER_0_36_133
*1405 FILLER_0_36_139
*1406 FILLER_0_36_141
*1407 FILLER_0_36_15
*1408 FILLER_0_36_153
*1409 FILLER_0_36_165
*1410 FILLER_0_36_185
*1411 FILLER_0_36_193
*1412 FILLER_0_36_197
*1413 FILLER_0_36_209
*1414 FILLER_0_36_220
*1415 FILLER_0_36_247
*1416 FILLER_0_36_25
*1417 FILLER_0_36_251
*1418 FILLER_0_36_253
*1419 FILLER_0_36_264
*1420 FILLER_0_36_270
*1421 FILLER_0_36_287
*1422 FILLER_0_36_29
*1423 FILLER_0_36_299
*1424 FILLER_0_36_3
*1425 FILLER_0_36_305
*1426 FILLER_0_36_314
*1427 FILLER_0_36_321
*1428 FILLER_0_36_344
*1429 FILLER_0_36_350
*1430 FILLER_0_36_72
*1431 FILLER_0_36_80
*1432 FILLER_0_36_93
*1433 FILLER_0_37_124
*1434 FILLER_0_37_128
*1435 FILLER_0_37_132
*1436 FILLER_0_37_142
*1437 FILLER_0_37_15
*1438 FILLER_0_37_160
*1439 FILLER_0_37_169
*1440 FILLER_0_37_177
*1441 FILLER_0_37_184
*1442 FILLER_0_37_196
*1443 FILLER_0_37_202
*1444 FILLER_0_37_21
*1445 FILLER_0_37_223
*1446 FILLER_0_37_229
*1447 FILLER_0_37_235
*1448 FILLER_0_37_241
*1449 FILLER_0_37_248
*1450 FILLER_0_37_254
*1451 FILLER_0_37_260
*1452 FILLER_0_37_266
*1453 FILLER_0_37_273
*1454 FILLER_0_37_279
*1455 FILLER_0_37_281
*1456 FILLER_0_37_287
*1457 FILLER_0_37_3
*1458 FILLER_0_37_300
*1459 FILLER_0_37_316
*1460 FILLER_0_37_322
*1461 FILLER_0_37_326
*1462 FILLER_0_37_334
*1463 FILLER_0_37_337
*1464 FILLER_0_37_349
*1465 FILLER_0_37_42
*1466 FILLER_0_37_46
*1467 FILLER_0_37_55
*1468 FILLER_0_37_72
*1469 FILLER_0_37_80
*1470 FILLER_0_37_88
*1471 FILLER_0_38_104
*1472 FILLER_0_38_110
*1473 FILLER_0_38_116
*1474 FILLER_0_38_132
*1475 FILLER_0_38_15
*1476 FILLER_0_38_151
*1477 FILLER_0_38_161
*1478 FILLER_0_38_173
*1479 FILLER_0_38_187
*1480 FILLER_0_38_19
*1481 FILLER_0_38_192
*1482 FILLER_0_38_213
*1483 FILLER_0_38_221
*1484 FILLER_0_38_225
*1485 FILLER_0_38_237
*1486 FILLER_0_38_242
*1487 FILLER_0_38_250
*1488 FILLER_0_38_278
*1489 FILLER_0_38_284
*1490 FILLER_0_38_29
*1491 FILLER_0_38_290
*1492 FILLER_0_38_296
*1493 FILLER_0_38_3
*1494 FILLER_0_38_319
*1495 FILLER_0_38_337
*1496 FILLER_0_38_349
*1497 FILLER_0_38_68
*1498 FILLER_0_38_74
*1499 FILLER_0_38_80
*1500 FILLER_0_38_88
*1501 FILLER_0_38_92
*1502 FILLER_0_38_98
*1503 FILLER_0_3_105
*1504 FILLER_0_3_111
*1505 FILLER_0_3_113
*1506 FILLER_0_3_125
*1507 FILLER_0_3_137
*1508 FILLER_0_3_149
*1509 FILLER_0_3_15
*1510 FILLER_0_3_161
*1511 FILLER_0_3_167
*1512 FILLER_0_3_169
*1513 FILLER_0_3_181
*1514 FILLER_0_3_193
*1515 FILLER_0_3_205
*1516 FILLER_0_3_217
*1517 FILLER_0_3_223
*1518 FILLER_0_3_225
*1519 FILLER_0_3_237
*1520 FILLER_0_3_249
*1521 FILLER_0_3_261
*1522 FILLER_0_3_27
*1523 FILLER_0_3_273
*1524 FILLER_0_3_279
*1525 FILLER_0_3_281
*1526 FILLER_0_3_293
*1527 FILLER_0_3_3
*1528 FILLER_0_3_305
*1529 FILLER_0_3_317
*1530 FILLER_0_3_329
*1531 FILLER_0_3_335
*1532 FILLER_0_3_337
*1533 FILLER_0_3_349
*1534 FILLER_0_3_39
*1535 FILLER_0_3_51
*1536 FILLER_0_3_55
*1537 FILLER_0_3_57
*1538 FILLER_0_3_69
*1539 FILLER_0_3_81
*1540 FILLER_0_3_93
*1541 FILLER_0_4_109
*1542 FILLER_0_4_121
*1543 FILLER_0_4_133
*1544 FILLER_0_4_139
*1545 FILLER_0_4_141
*1546 FILLER_0_4_15
*1547 FILLER_0_4_153
*1548 FILLER_0_4_165
*1549 FILLER_0_4_177
*1550 FILLER_0_4_189
*1551 FILLER_0_4_195
*1552 FILLER_0_4_197
*1553 FILLER_0_4_209
*1554 FILLER_0_4_221
*1555 FILLER_0_4_233
*1556 FILLER_0_4_245
*1557 FILLER_0_4_251
*1558 FILLER_0_4_253
*1559 FILLER_0_4_265
*1560 FILLER_0_4_27
*1561 FILLER_0_4_277
*1562 FILLER_0_4_289
*1563 FILLER_0_4_29
*1564 FILLER_0_4_3