*SPEF "ieee 1481-1999"
*DESIGN "tt_um_topModuleKA"
*DATE "11:11:11 Fri 11 11, 1111"
*VENDOR "OpenRCX"
*PROGRAM "Parallel Extraction"
*VERSION "1.0"
*DESIGN_FLOW "NAME_SCOPE LOCAL" "PIN_CAP NONE"
*DIVIDER /
*DELIMITER :
*BUS_DELIMITER []
*T_UNIT 1 NS
*C_UNIT 1 PF
*R_UNIT 1 OHM
*L_UNIT 1 HENRY

*NAME_MAP
*3 clk
*4 ena
*5 rst_n
*6 ui_in[0]
*7 ui_in[1]
*8 ui_in[2]
*9 ui_in[3]
*10 ui_in[4]
*11 ui_in[5]
*12 ui_in[6]
*13 ui_in[7]
*14 uio_in[0]
*15 uio_in[1]
*16 uio_in[2]
*17 uio_in[3]
*18 uio_in[4]
*19 uio_in[5]
*20 uio_in[6]
*21 uio_in[7]
*22 net14
*23 net15
*24 net16
*25 net17
*26 net18
*27 net19
*28 net20
*29 net21
*30 uio_out[0]
*31 uio_out[1]
*32 uio_out[2]
*33 uio_out[3]
*34 net10
*35 net11
*36 net12
*37 net13
*38 uo_out[0]
*39 uo_out[1]
*40 uo_out[2]
*41 uo_out[3]
*42 uo_out[4]
*43 uo_out[5]
*44 uo_out[6]
*45 uo_out[7]
*46 _000_
*47 _001_
*48 _002_
*49 _003_
*50 _004_
*51 _005_
*52 _006_
*53 _007_
*54 _008_
*55 _009_
*56 _010_
*57 _011_
*58 _012_
*59 _013_
*60 _014_
*61 _015_
*62 _016_
*63 _017_
*64 _018_
*65 _019_
*66 _020_
*67 _021_
*68 _022_
*69 _023_
*70 _024_
*71 _025_
*72 _026_
*73 _027_
*74 _028_
*75 _029_
*76 _030_
*77 _031_
*78 _032_
*79 _033_
*80 _034_
*81 _035_
*82 _036_
*83 _037_
*84 _038_
*85 _039_
*86 _040_
*87 _041_
*88 _042_
*89 _043_
*90 _044_
*91 _045_
*92 _046_
*93 _047_
*94 _048_
*95 _049_
*96 _050_
*97 _051_
*98 _052_
*99 _053_
*100 _054_
*101 _055_
*102 _056_
*103 _057_
*104 _058_
*105 _059_
*106 _060_
*107 _061_
*108 _062_
*109 _063_
*110 _064_
*111 _065_
*112 _066_
*113 _067_
*114 _068_
*115 _069_
*116 _070_
*117 _071_
*118 _072_
*119 _073_
*120 _074_
*121 _075_
*122 _076_
*123 _077_
*124 _078_
*125 _079_
*126 _080_
*127 _081_
*128 _082_
*129 _083_
*130 _084_
*131 _085_
*132 _086_
*133 _087_
*134 _088_
*135 _089_
*136 _090_
*137 _091_
*138 _092_
*139 _093_
*140 _094_
*141 _095_
*142 _096_
*143 _097_
*144 _098_
*145 _099_
*146 _100_
*147 _101_
*148 _102_
*149 _103_
*150 _104_
*151 _105_
*152 _106_
*153 _107_
*154 _108_
*155 _109_
*156 _110_
*157 _111_
*158 _112_
*159 _113_
*160 _114_
*161 _115_
*162 _116_
*163 _117_
*164 _118_
*165 _119_
*166 _120_
*167 _121_
*168 _122_
*169 _123_
*170 _124_
*171 _125_
*172 _126_
*173 _127_
*174 _128_
*175 _129_
*176 _130_
*177 _131_
*178 _132_
*179 _133_
*180 _134_
*181 _135_
*182 _136_
*183 _137_
*184 _138_
*185 _139_
*186 _140_
*187 _141_
*188 _142_
*189 _143_
*190 _144_
*191 _145_
*192 _146_
*193 _147_
*194 _148_
*195 _149_
*196 _150_
*197 _151_
*198 _152_
*199 _153_
*200 _154_
*201 _155_
*202 _156_
*203 _157_
*204 _158_
*205 _159_
*206 _160_
*207 _161_
*208 _162_
*209 _163_
*210 _164_
*211 _165_
*212 _166_
*213 _167_
*214 _168_
*215 _169_
*216 _170_
*217 _171_
*218 _172_
*219 _173_
*220 _174_
*221 _175_
*222 _176_
*223 _177_
*224 _178_
*225 _179_
*226 _180_
*227 _181_
*228 _182_
*229 _183_
*230 _184_
*231 _185_
*232 _186_
*233 _187_
*234 _188_
*235 _189_
*236 _190_
*237 _191_
*238 _192_
*239 _193_
*240 _194_
*241 _195_
*242 _196_
*243 clknet_0_clk
*244 clknet_2_0__leaf_clk
*245 clknet_2_1__leaf_clk
*246 clknet_2_2__leaf_clk
*247 clknet_2_3__leaf_clk
*248 lif1\.spike
*249 lif1\.state\[0\]
*250 lif1\.state\[1\]
*251 lif1\.state\[2\]
*252 lif1\.state\[3\]
*253 lif1\.state\[4\]
*254 lif1\.state\[5\]
*255 lif1\.state\[6\]
*256 lif1\.state\[7\]
*257 lif2\.spike
*258 lif2\.state\[0\]
*259 lif2\.state\[1\]
*260 lif2\.state\[2\]
*261 lif2\.state\[3\]
*262 lif2\.state\[4\]
*263 lif2\.state\[5\]
*264 lif2\.state\[6\]
*265 lif2\.state\[7\]
*266 lif3\.spike
*267 lif3\.state\[0\]
*268 lif3\.state\[1\]
*269 lif3\.state\[2\]
*270 lif3\.state\[3\]
*271 lif3\.state\[4\]
*272 lif3\.state\[5\]
*273 lif3\.state\[6\]
*274 lif3\.state\[7\]
*275 lif4\.spike
*276 lif4\.state\[0\]
*277 lif4\.state\[1\]
*278 lif4\.state\[2\]
*279 lif4\.state\[3\]
*280 lif4\.state\[4\]
*281 lif4\.state\[5\]
*282 lif4\.state\[6\]
*283 lif4\.state\[7\]
*284 net1
*285 net2
*286 net3
*287 net4
*288 net5
*289 net6
*290 net7
*291 net8
*292 net9
*293 FILLER_0_0_109
*294 FILLER_0_0_113
*295 FILLER_0_0_125
*296 FILLER_0_0_137
*297 FILLER_0_0_141
*298 FILLER_0_0_15
*299 FILLER_0_0_153
*300 FILLER_0_0_165
*301 FILLER_0_0_169
*302 FILLER_0_0_181
*303 FILLER_0_0_193
*304 FILLER_0_0_197
*305 FILLER_0_0_209
*306 FILLER_0_0_221
*307 FILLER_0_0_225
*308 FILLER_0_0_237
*309 FILLER_0_0_249
*310 FILLER_0_0_253
*311 FILLER_0_0_265
*312 FILLER_0_0_27
*313 FILLER_0_0_277
*314 FILLER_0_0_281
*315 FILLER_0_0_29
*316 FILLER_0_0_293
*317 FILLER_0_0_3
*318 FILLER_0_0_305
*319 FILLER_0_0_309
*320 FILLER_0_0_321
*321 FILLER_0_0_333
*322 FILLER_0_0_337
*323 FILLER_0_0_349
*324 FILLER_0_0_41
*325 FILLER_0_0_53
*326 FILLER_0_0_57
*327 FILLER_0_0_69
*328 FILLER_0_0_81
*329 FILLER_0_0_85
*330 FILLER_0_0_97
*331 FILLER_0_10_109
*332 FILLER_0_10_121
*333 FILLER_0_10_133
*334 FILLER_0_10_139
*335 FILLER_0_10_141
*336 FILLER_0_10_15
*337 FILLER_0_10_153
*338 FILLER_0_10_165
*339 FILLER_0_10_177
*340 FILLER_0_10_189
*341 FILLER_0_10_195
*342 FILLER_0_10_197
*343 FILLER_0_10_209
*344 FILLER_0_10_221
*345 FILLER_0_10_233
*346 FILLER_0_10_245
*347 FILLER_0_10_251
*348 FILLER_0_10_253
*349 FILLER_0_10_265
*350 FILLER_0_10_27
*351 FILLER_0_10_277
*352 FILLER_0_10_289
*353 FILLER_0_10_29
*354 FILLER_0_10_3
*355 FILLER_0_10_301
*356 FILLER_0_10_307
*357 FILLER_0_10_309
*358 FILLER_0_10_321
*359 FILLER_0_10_333
*360 FILLER_0_10_345
*361 FILLER_0_10_41
*362 FILLER_0_10_53
*363 FILLER_0_10_65
*364 FILLER_0_10_77
*365 FILLER_0_10_83
*366 FILLER_0_10_85
*367 FILLER_0_10_97
*368 FILLER_0_11_105
*369 FILLER_0_11_111
*370 FILLER_0_11_113
*371 FILLER_0_11_125
*372 FILLER_0_11_137
*373 FILLER_0_11_149
*374 FILLER_0_11_15
*375 FILLER_0_11_161
*376 FILLER_0_11_167
*377 FILLER_0_11_169
*378 FILLER_0_11_181
*379 FILLER_0_11_193
*380 FILLER_0_11_205
*381 FILLER_0_11_217
*382 FILLER_0_11_223
*383 FILLER_0_11_225
*384 FILLER_0_11_237
*385 FILLER_0_11_249
*386 FILLER_0_11_261
*387 FILLER_0_11_27
*388 FILLER_0_11_273
*389 FILLER_0_11_279
*390 FILLER_0_11_281
*391 FILLER_0_11_293
*392 FILLER_0_11_3
*393 FILLER_0_11_305
*394 FILLER_0_11_317
*395 FILLER_0_11_329
*396 FILLER_0_11_335
*397 FILLER_0_11_337
*398 FILLER_0_11_349
*399 FILLER_0_11_39
*400 FILLER_0_11_51
*401 FILLER_0_11_55
*402 FILLER_0_11_57
*403 FILLER_0_11_69
*404 FILLER_0_11_81
*405 FILLER_0_11_93
*406 FILLER_0_12_109
*407 FILLER_0_12_121
*408 FILLER_0_12_133
*409 FILLER_0_12_139
*410 FILLER_0_12_141
*411 FILLER_0_12_15
*412 FILLER_0_12_153
*413 FILLER_0_12_165
*414 FILLER_0_12_177
*415 FILLER_0_12_189
*416 FILLER_0_12_195
*417 FILLER_0_12_197
*418 FILLER_0_12_209
*419 FILLER_0_12_221
*420 FILLER_0_12_233
*421 FILLER_0_12_245
*422 FILLER_0_12_251
*423 FILLER_0_12_253
*424 FILLER_0_12_265
*425 FILLER_0_12_27
*426 FILLER_0_12_277
*427 FILLER_0_12_289
*428 FILLER_0_12_29
*429 FILLER_0_12_3
*430 FILLER_0_12_301
*431 FILLER_0_12_307
*432 FILLER_0_12_309
*433 FILLER_0_12_321
*434 FILLER_0_12_333
*435 FILLER_0_12_345
*436 FILLER_0_12_41
*437 FILLER_0_12_53
*438 FILLER_0_12_65
*439 FILLER_0_12_77
*440 FILLER_0_12_83
*441 FILLER_0_12_85
*442 FILLER_0_12_97
*443 FILLER_0_13_105
*444 FILLER_0_13_111
*445 FILLER_0_13_113
*446 FILLER_0_13_125
*447 FILLER_0_13_137
*448 FILLER_0_13_149
*449 FILLER_0_13_15
*450 FILLER_0_13_161
*451 FILLER_0_13_167
*452 FILLER_0_13_169
*453 FILLER_0_13_181
*454 FILLER_0_13_193
*455 FILLER_0_13_205
*456 FILLER_0_13_217
*457 FILLER_0_13_223
*458 FILLER_0_13_225
*459 FILLER_0_13_237
*460 FILLER_0_13_249
*461 FILLER_0_13_261
*462 FILLER_0_13_27
*463 FILLER_0_13_273
*464 FILLER_0_13_279
*465 FILLER_0_13_281
*466 FILLER_0_13_293
*467 FILLER_0_13_3
*468 FILLER_0_13_305
*469 FILLER_0_13_317
*470 FILLER_0_13_329
*471 FILLER_0_13_335
*472 FILLER_0_13_337
*473 FILLER_0_13_349
*474 FILLER_0_13_39
*475 FILLER_0_13_51
*476 FILLER_0_13_55
*477 FILLER_0_13_57
*478 FILLER_0_13_69
*479 FILLER_0_13_81
*480 FILLER_0_13_93
*481 FILLER_0_14_109
*482 FILLER_0_14_121
*483 FILLER_0_14_133
*484 FILLER_0_14_139
*485 FILLER_0_14_141
*486 FILLER_0_14_15
*487 FILLER_0_14_153
*488 FILLER_0_14_165
*489 FILLER_0_14_177
*490 FILLER_0_14_189
*491 FILLER_0_14_195
*492 FILLER_0_14_197
*493 FILLER_0_14_209
*494 FILLER_0_14_221
*495 FILLER_0_14_233
*496 FILLER_0_14_245
*497 FILLER_0_14_251
*498 FILLER_0_14_253
*499 FILLER_0_14_265
*500 FILLER_0_14_27
*501 FILLER_0_14_277
*502 FILLER_0_14_289
*503 FILLER_0_14_29
*504 FILLER_0_14_3
*505 FILLER_0_14_301
*506 FILLER_0_14_307
*507 FILLER_0_14_309
*508 FILLER_0_14_321
*509 FILLER_0_14_333
*510 FILLER_0_14_345
*511 FILLER_0_14_41
*512 FILLER_0_14_53
*513 FILLER_0_14_65
*514 FILLER_0_14_77
*515 FILLER_0_14_83
*516 FILLER_0_14_85
*517 FILLER_0_14_97
*518 FILLER_0_15_105
*519 FILLER_0_15_111
*520 FILLER_0_15_113
*521 FILLER_0_15_125
*522 FILLER_0_15_137
*523 FILLER_0_15_149
*524 FILLER_0_15_15
*525 FILLER_0_15_161
*526 FILLER_0_15_167
*527 FILLER_0_15_169
*528 FILLER_0_15_181
*529 FILLER_0_15_193
*530 FILLER_0_15_205
*531 FILLER_0_15_217
*532 FILLER_0_15_223
*533 FILLER_0_15_225
*534 FILLER_0_15_237
*535 FILLER_0_15_249
*536 FILLER_0_15_261
*537 FILLER_0_15_27
*538 FILLER_0_15_273
*539 FILLER_0_15_279
*540 FILLER_0_15_281
*541 FILLER_0_15_293
*542 FILLER_0_15_3
*543 FILLER_0_15_305
*544 FILLER_0_15_317
*545 FILLER_0_15_329
*546 FILLER_0_15_335
*547 FILLER_0_15_337
*548 FILLER_0_15_349
*549 FILLER_0_15_39
*550 FILLER_0_15_51
*551 FILLER_0_15_55
*552 FILLER_0_15_57
*553 FILLER_0_15_69
*554 FILLER_0_15_81
*555 FILLER_0_15_93
*556 FILLER_0_16_109
*557 FILLER_0_16_121
*558 FILLER_0_16_133
*559 FILLER_0_16_139
*560 FILLER_0_16_141
*561 FILLER_0_16_15
*562 FILLER_0_16_153
*563 FILLER_0_16_165
*564 FILLER_0_16_177
*565 FILLER_0_16_189
*566 FILLER_0_16_195
*567 FILLER_0_16_197
*568 FILLER_0_16_209
*569 FILLER_0_16_221
*570 FILLER_0_16_233
*571 FILLER_0_16_245
*572 FILLER_0_16_251
*573 FILLER_0_16_253
*574 FILLER_0_16_265
*575 FILLER_0_16_27
*576 FILLER_0_16_277
*577 FILLER_0_16_289
*578 FILLER_0_16_29
*579 FILLER_0_16_3
*580 FILLER_0_16_301
*581 FILLER_0_16_307
*582 FILLER_0_16_309
*583 FILLER_0_16_321
*584 FILLER_0_16_333
*585 FILLER_0_16_345
*586 FILLER_0_16_41
*587 FILLER_0_16_53
*588 FILLER_0_16_65
*589 FILLER_0_16_77
*590 FILLER_0_16_83
*591 FILLER_0_16_85
*592 FILLER_0_16_97
*593 FILLER_0_17_105
*594 FILLER_0_17_111
*595 FILLER_0_17_113
*596 FILLER_0_17_125
*597 FILLER_0_17_137
*598 FILLER_0_17_149
*599 FILLER_0_17_15
*600 FILLER_0_17_161
*601 FILLER_0_17_167
*602 FILLER_0_17_169
*603 FILLER_0_17_181
*604 FILLER_0_17_193
*605 FILLER_0_17_205
*606 FILLER_0_17_217
*607 FILLER_0_17_223
*608 FILLER_0_17_225
*609 FILLER_0_17_237
*610 FILLER_0_17_249
*611 FILLER_0_17_261
*612 FILLER_0_17_27
*613 FILLER_0_17_273
*614 FILLER_0_17_279
*615 FILLER_0_17_281
*616 FILLER_0_17_293
*617 FILLER_0_17_3
*618 FILLER_0_17_305
*619 FILLER_0_17_317
*620 FILLER_0_17_329
*621 FILLER_0_17_335
*622 FILLER_0_17_337
*623 FILLER_0_17_349
*624 FILLER_0_17_39
*625 FILLER_0_17_51
*626 FILLER_0_17_55
*627 FILLER_0_17_57
*628 FILLER_0_17_69
*629 FILLER_0_17_81
*630 FILLER_0_17_93
*631 FILLER_0_18_109
*632 FILLER_0_18_121
*633 FILLER_0_18_133
*634 FILLER_0_18_139
*635 FILLER_0_18_141
*636 FILLER_0_18_15
*637 FILLER_0_18_153
*638 FILLER_0_18_165
*639 FILLER_0_18_177
*640 FILLER_0_18_189
*641 FILLER_0_18_195
*642 FILLER_0_18_197
*643 FILLER_0_18_209
*644 FILLER_0_18_221
*645 FILLER_0_18_233
*646 FILLER_0_18_245
*647 FILLER_0_18_251
*648 FILLER_0_18_253
*649 FILLER_0_18_265
*650 FILLER_0_18_27
*651 FILLER_0_18_277
*652 FILLER_0_18_289
*653 FILLER_0_18_29
*654 FILLER_0_18_3
*655 FILLER_0_18_301
*656 FILLER_0_18_307
*657 FILLER_0_18_309
*658 FILLER_0_18_321
*659 FILLER_0_18_333
*660 FILLER_0_18_345
*661 FILLER_0_18_41
*662 FILLER_0_18_53
*663 FILLER_0_18_65
*664 FILLER_0_18_77
*665 FILLER_0_18_83
*666 FILLER_0_18_85
*667 FILLER_0_18_97
*668 FILLER_0_19_105
*669 FILLER_0_19_111
*670 FILLER_0_19_113
*671 FILLER_0_19_125
*672 FILLER_0_19_137
*673 FILLER_0_19_149
*674 FILLER_0_19_15
*675 FILLER_0_19_161
*676 FILLER_0_19_167
*677 FILLER_0_19_169
*678 FILLER_0_19_181
*679 FILLER_0_19_193
*680 FILLER_0_19_205
*681 FILLER_0_19_217
*682 FILLER_0_19_223
*683 FILLER_0_19_225
*684 FILLER_0_19_237
*685 FILLER_0_19_249
*686 FILLER_0_19_261
*687 FILLER_0_19_27
*688 FILLER_0_19_273
*689 FILLER_0_19_279
*690 FILLER_0_19_281
*691 FILLER_0_19_293
*692 FILLER_0_19_3
*693 FILLER_0_19_305
*694 FILLER_0_19_317
*695 FILLER_0_19_329
*696 FILLER_0_19_335
*697 FILLER_0_19_337
*698 FILLER_0_19_349
*699 FILLER_0_19_39
*700 FILLER_0_19_51
*701 FILLER_0_19_55
*702 FILLER_0_19_57
*703 FILLER_0_19_69
*704 FILLER_0_19_81
*705 FILLER_0_19_93
*706 FILLER_0_1_105
*707 FILLER_0_1_111
*708 FILLER_0_1_113
*709 FILLER_0_1_125
*710 FILLER_0_1_137
*711 FILLER_0_1_149
*712 FILLER_0_1_15
*713 FILLER_0_1_161
*714 FILLER_0_1_167
*715 FILLER_0_1_169
*716 FILLER_0_1_181
*717 FILLER_0_1_193
*718 FILLER_0_1_205
*719 FILLER_0_1_217
*720 FILLER_0_1_223
*721 FILLER_0_1_225
*722 FILLER_0_1_237
*723 FILLER_0_1_249
*724 FILLER_0_1_261
*725 FILLER_0_1_27
*726 FILLER_0_1_273
*727 FILLER_0_1_279
*728 FILLER_0_1_281
*729 FILLER_0_1_293
*730 FILLER_0_1_3
*731 FILLER_0_1_305
*732 FILLER_0_1_317
*733 FILLER_0_1_329
*734 FILLER_0_1_335
*735 FILLER_0_1_337
*736 FILLER_0_1_349
*737 FILLER_0_1_39
*738 FILLER_0_1_51
*739 FILLER_0_1_55
*740 FILLER_0_1_57
*741 FILLER_0_1_69
*742 FILLER_0_1_81
*743 FILLER_0_1_93
*744 FILLER_0_20_109
*745 FILLER_0_20_121
*746 FILLER_0_20_133
*747 FILLER_0_20_139
*748 FILLER_0_20_141
*749 FILLER_0_20_15
*750 FILLER_0_20_153
*751 FILLER_0_20_165
*752 FILLER_0_20_177
*753 FILLER_0_20_189
*754 FILLER_0_20_195
*755 FILLER_0_20_197
*756 FILLER_0_20_209
*757 FILLER_0_20_221
*758 FILLER_0_20_233
*759 FILLER_0_20_245
*760 FILLER_0_20_251
*761 FILLER_0_20_253
*762 FILLER_0_20_265
*763 FILLER_0_20_27
*764 FILLER_0_20_277
*765 FILLER_0_20_289
*766 FILLER_0_20_29
*767 FILLER_0_20_3
*768 FILLER_0_20_301
*769 FILLER_0_20_307
*770 FILLER_0_20_309
*771 FILLER_0_20_321
*772 FILLER_0_20_333
*773 FILLER_0_20_345
*774 FILLER_0_20_41
*775 FILLER_0_20_53
*776 FILLER_0_20_65
*777 FILLER_0_20_77
*778 FILLER_0_20_83
*779 FILLER_0_20_85
*780 FILLER_0_20_97
*781 FILLER_0_21_105
*782 FILLER_0_21_111
*783 FILLER_0_21_113
*784 FILLER_0_21_125
*785 FILLER_0_21_137
*786 FILLER_0_21_149
*787 FILLER_0_21_15
*788 FILLER_0_21_161
*789 FILLER_0_21_167
*790 FILLER_0_21_169
*791 FILLER_0_21_181
*792 FILLER_0_21_193
*793 FILLER_0_21_205
*794 FILLER_0_21_217
*795 FILLER_0_21_223
*796 FILLER_0_21_225
*797 FILLER_0_21_237
*798 FILLER_0_21_249
*799 FILLER_0_21_261
*800 FILLER_0_21_27
*801 FILLER_0_21_273
*802 FILLER_0_21_279
*803 FILLER_0_21_281
*804 FILLER_0_21_293
*805 FILLER_0_21_3
*806 FILLER_0_21_305
*807 FILLER_0_21_317
*808 FILLER_0_21_329
*809 FILLER_0_21_335
*810 FILLER_0_21_337
*811 FILLER_0_21_349
*812 FILLER_0_21_39
*813 FILLER_0_21_51
*814 FILLER_0_21_55
*815 FILLER_0_21_57
*816 FILLER_0_21_69
*817 FILLER_0_21_81
*818 FILLER_0_21_93
*819 FILLER_0_22_109
*820 FILLER_0_22_121
*821 FILLER_0_22_133
*822 FILLER_0_22_139
*823 FILLER_0_22_141
*824 FILLER_0_22_15
*825 FILLER_0_22_153
*826 FILLER_0_22_165
*827 FILLER_0_22_177
*828 FILLER_0_22_189
*829 FILLER_0_22_195
*830 FILLER_0_22_197
*831 FILLER_0_22_209
*832 FILLER_0_22_221
*833 FILLER_0_22_233
*834 FILLER_0_22_245
*835 FILLER_0_22_251
*836 FILLER_0_22_253
*837 FILLER_0_22_265
*838 FILLER_0_22_27
*839 FILLER_0_22_277
*840 FILLER_0_22_289
*841 FILLER_0_22_29
*842 FILLER_0_22_3
*843 FILLER_0_22_301
*844 FILLER_0_22_307
*845 FILLER_0_22_309
*846 FILLER_0_22_321
*847 FILLER_0_22_333
*848 FILLER_0_22_345
*849 FILLER_0_22_41
*850 FILLER_0_22_53
*851 FILLER_0_22_65
*852 FILLER_0_22_77
*853 FILLER_0_22_83
*854 FILLER_0_22_85
*855 FILLER_0_22_97
*856 FILLER_0_23_105
*857 FILLER_0_23_111
*858 FILLER_0_23_113
*859 FILLER_0_23_125
*860 FILLER_0_23_137
*861 FILLER_0_23_149
*862 FILLER_0_23_15
*863 FILLER_0_23_161
*864 FILLER_0_23_167
*865 FILLER_0_23_169
*866 FILLER_0_23_181
*867 FILLER_0_23_193
*868 FILLER_0_23_205
*869 FILLER_0_23_217
*870 FILLER_0_23_223
*871 FILLER_0_23_225
*872 FILLER_0_23_237
*873 FILLER_0_23_249
*874 FILLER_0_23_261
*875 FILLER_0_23_27
*876 FILLER_0_23_273
*877 FILLER_0_23_279
*878 FILLER_0_23_281
*879 FILLER_0_23_293
*880 FILLER_0_23_3
*881 FILLER_0_23_305
*882 FILLER_0_23_317
*883 FILLER_0_23_329
*884 FILLER_0_23_335
*885 FILLER_0_23_337
*886 FILLER_0_23_349
*887 FILLER_0_23_39
*888 FILLER_0_23_51
*889 FILLER_0_23_55
*890 FILLER_0_23_57
*891 FILLER_0_23_69
*892 FILLER_0_23_81
*893 FILLER_0_23_93
*894 FILLER_0_24_109
*895 FILLER_0_24_121
*896 FILLER_0_24_133
*897 FILLER_0_24_139
*898 FILLER_0_24_141
*899 FILLER_0_24_15
*900 FILLER_0_24_153
*901 FILLER_0_24_165
*902 FILLER_0_24_177
*903 FILLER_0_24_189
*904 FILLER_0_24_195
*905 FILLER_0_24_197
*906 FILLER_0_24_209
*907 FILLER_0_24_221
*908 FILLER_0_24_233
*909 FILLER_0_24_245
*910 FILLER_0_24_251
*911 FILLER_0_24_253
*912 FILLER_0_24_259
*913 FILLER_0_24_27
*914 FILLER_0_24_280
*915 FILLER_0_24_29
*916 FILLER_0_24_292
*917 FILLER_0_24_3
*918 FILLER_0_24_304
*919 FILLER_0_24_309
*920 FILLER_0_24_321
*921 FILLER_0_24_333
*922 FILLER_0_24_345
*923 FILLER_0_24_41
*924 FILLER_0_24_53
*925 FILLER_0_24_65
*926 FILLER_0_24_77
*927 FILLER_0_24_83
*928 FILLER_0_24_85
*929 FILLER_0_24_97
*930 FILLER_0_25_105
*931 FILLER_0_25_111
*932 FILLER_0_25_113
*933 FILLER_0_25_125
*934 FILLER_0_25_137
*935 FILLER_0_25_149
*936 FILLER_0_25_15
*937 FILLER_0_25_161
*938 FILLER_0_25_167
*939 FILLER_0_25_169
*940 FILLER_0_25_181
*941 FILLER_0_25_193
*942 FILLER_0_25_205
*943 FILLER_0_25_217
*944 FILLER_0_25_223
*945 FILLER_0_25_225
*946 FILLER_0_25_237
*947 FILLER_0_25_249
*948 FILLER_0_25_261
*949 FILLER_0_25_27
*950 FILLER_0_25_273
*951 FILLER_0_25_279
*952 FILLER_0_25_281
*953 FILLER_0_25_287
*954 FILLER_0_25_3
*955 FILLER_0_25_307
*956 FILLER_0_25_319
*957 FILLER_0_25_331
*958 FILLER_0_25_335
*959 FILLER_0_25_337
*960 FILLER_0_25_349
*961 FILLER_0_25_39
*962 FILLER_0_25_51
*963 FILLER_0_25_55
*964 FILLER_0_25_57
*965 FILLER_0_25_69
*966 FILLER_0_25_81
*967 FILLER_0_25_93
*968 FILLER_0_26_109
*969 FILLER_0_26_121
*970 FILLER_0_26_133
*971 FILLER_0_26_139
*972 FILLER_0_26_141
*973 FILLER_0_26_15
*974 FILLER_0_26_153
*975 FILLER_0_26_165
*976 FILLER_0_26_177
*977 FILLER_0_26_189
*978 FILLER_0_26_195
*979 FILLER_0_26_197
*980 FILLER_0_26_209
*981 FILLER_0_26_221
*982 FILLER_0_26_229
*983 FILLER_0_26_236
*984 FILLER_0_26_248
*985 FILLER_0_26_253
*986 FILLER_0_26_27
*987 FILLER_0_26_272
*988 FILLER_0_26_278
*989 FILLER_0_26_29
*990 FILLER_0_26_294
*991 FILLER_0_26_3
*992 FILLER_0_26_306
*993 FILLER_0_26_309
*994 FILLER_0_26_336
*995 FILLER_0_26_348
*996 FILLER_0_26_41
*997 FILLER_0_26_53
*998 FILLER_0_26_65
*999 FILLER_0_26_77
*1000 FILLER_0_26_83
*1001 FILLER_0_26_85
*1002 FILLER_0_26_97
*1003 FILLER_0_27_105
*1004 FILLER_0_27_111
*1005 FILLER_0_27_113
*1006 FILLER_0_27_125
*1007 FILLER_0_27_137
*1008 FILLER_0_27_145
*1009 FILLER_0_27_15
*1010 FILLER_0_27_163
*1011 FILLER_0_27_167
*1012 FILLER_0_27_169
*1013 FILLER_0_27_182
*1014 FILLER_0_27_194
*1015 FILLER_0_27_206
*1016 FILLER_0_27_218
*1017 FILLER_0_27_245
*1018 FILLER_0_27_254
*1019 FILLER_0_27_259
*1020 FILLER_0_27_264
*1021 FILLER_0_27_27
*1022 FILLER_0_27_276
*1023 FILLER_0_27_289
*1024 FILLER_0_27_3
*1025 FILLER_0_27_313
*1026 FILLER_0_27_325
*1027 FILLER_0_27_333
*1028 FILLER_0_27_337
*1029 FILLER_0_27_342
*1030 FILLER_0_27_350
*1031 FILLER_0_27_39
*1032 FILLER_0_27_51
*1033 FILLER_0_27_55
*1034 FILLER_0_27_57
*1035 FILLER_0_27_69
*1036 FILLER_0_27_81
*1037 FILLER_0_27_93
*1038 FILLER_0_28_109
*1039 FILLER_0_28_131
*1040 FILLER_0_28_139
*1041 FILLER_0_28_141
*1042 FILLER_0_28_15
*1043 FILLER_0_28_152
*1044 FILLER_0_28_158
*1045 FILLER_0_28_166
*1046 FILLER_0_28_172
*1047 FILLER_0_28_191
*1048 FILLER_0_28_195
*1049 FILLER_0_28_197
*1050 FILLER_0_28_209
*1051 FILLER_0_28_221
*1052 FILLER_0_28_233
*1053 FILLER_0_28_245
*1054 FILLER_0_28_251
*1055 FILLER_0_28_265
*1056 FILLER_0_28_27
*1057 FILLER_0_28_275
*1058 FILLER_0_28_281
*1059 FILLER_0_28_29
*1060 FILLER_0_28_292
*1061 FILLER_0_28_3
*1062 FILLER_0_28_300
*1063 FILLER_0_28_307
*1064 FILLER_0_28_314
*1065 FILLER_0_28_329
*1066 FILLER_0_28_41
*1067 FILLER_0_28_53
*1068 FILLER_0_28_65
*1069 FILLER_0_28_77
*1070 FILLER_0_28_83
*1071 FILLER_0_28_85
*1072 FILLER_0_28_97
*1073 FILLER_0_29_105
*1074 FILLER_0_29_111
*1075 FILLER_0_29_139
*1076 FILLER_0_29_15
*1077 FILLER_0_29_157
*1078 FILLER_0_29_164
*1079 FILLER_0_29_169
*1080 FILLER_0_29_191
*1081 FILLER_0_29_209
*1082 FILLER_0_29_215
*1083 FILLER_0_29_219
*1084 FILLER_0_29_223
*1085 FILLER_0_29_225
*1086 FILLER_0_29_242
*1087 FILLER_0_29_249
*1088 FILLER_0_29_261
*1089 FILLER_0_29_27
*1090 FILLER_0_29_273
*1091 FILLER_0_29_279
*1092 FILLER_0_29_286
*1093 FILLER_0_29_3
*1094 FILLER_0_29_305
*1095 FILLER_0_29_313
*1096 FILLER_0_29_329
*1097 FILLER_0_29_335
*1098 FILLER_0_29_337
*1099 FILLER_0_29_350
*1100 FILLER_0_29_39
*1101 FILLER_0_29_51
*1102 FILLER_0_29_55
*1103 FILLER_0_29_57
*1104 FILLER_0_29_69
*1105 FILLER_0_29_81
*1106 FILLER_0_29_93
*1107 FILLER_0_2_109
*1108 FILLER_0_2_121
*1109 FILLER_0_2_133
*1110 FILLER_0_2_139
*1111 FILLER_0_2_141
*1112 FILLER_0_2_15
*1113 FILLER_0_2_153
*1114 FILLER_0_2_165
*1115 FILLER_0_2_177
*1116 FILLER_0_2_189
*1117 FILLER_0_2_195
*1118 FILLER_0_2_197
*1119 FILLER_0_2_209
*1120 FILLER_0_2_221
*1121 FILLER_0_2_233
*1122 FILLER_0_2_245
*1123 FILLER_0_2_251
*1124 FILLER_0_2_253
*1125 FILLER_0_2_265
*1126 FILLER_0_2_27
*1127 FILLER_0_2_277
*1128 FILLER_0_2_289
*1129 FILLER_0_2_29
*1130 FILLER_0_2_3
*1131 FILLER_0_2_301
*1132 FILLER_0_2_307
*1133 FILLER_0_2_309
*1134 FILLER_0_2_321
*1135 FILLER_0_2_333
*1136 FILLER_0_2_345
*1137 FILLER_0_2_41
*1138 FILLER_0_2_53
*1139 FILLER_0_2_65
*1140 FILLER_0_2_77
*1141 FILLER_0_2_83
*1142 FILLER_0_2_85
*1143 FILLER_0_2_97
*1144 FILLER_0_30_105
*1145 FILLER_0_30_112
*1146 FILLER_0_30_118
*1147 FILLER_0_30_123
*1148 FILLER_0_30_131
*1149 FILLER_0_30_135
*1150 FILLER_0_30_139
*1151 FILLER_0_30_145
*1152 FILLER_0_30_15
*1153 FILLER_0_30_157
*1154 FILLER_0_30_186
*1155 FILLER_0_30_194
*1156 FILLER_0_30_203
*1157 FILLER_0_30_211
*1158 FILLER_0_30_246
*1159 FILLER_0_30_253
*1160 FILLER_0_30_260
*1161 FILLER_0_30_27
*1162 FILLER_0_30_282
*1163 FILLER_0_30_29
*1164 FILLER_0_30_3
*1165 FILLER_0_30_300
*1166 FILLER_0_30_309
*1167 FILLER_0_30_313
*1168 FILLER_0_30_318
*1169 FILLER_0_30_326
*1170 FILLER_0_30_342
*1171 FILLER_0_30_350
*1172 FILLER_0_30_41
*1173 FILLER_0_30_53
*1174 FILLER_0_30_65
*1175 FILLER_0_30_77
*1176 FILLER_0_30_83
*1177 FILLER_0_30_85
*1178 FILLER_0_31_108
*1179 FILLER_0_31_138
*1180 FILLER_0_31_147
*1181 FILLER_0_31_15
*1182 FILLER_0_31_155
*1183 FILLER_0_31_166
*1184 FILLER_0_31_180
*1185 FILLER_0_31_184
*1186 FILLER_0_31_196
*1187 FILLER_0_31_223
*1188 FILLER_0_31_225
*1189 FILLER_0_31_237
*1190 FILLER_0_31_241
*1191 FILLER_0_31_261
*1192 FILLER_0_31_27
*1193 FILLER_0_31_273
*1194 FILLER_0_31_279
*1195 FILLER_0_31_284
*1196 FILLER_0_31_297
*1197 FILLER_0_31_3
*1198 FILLER_0_31_309
*1199 FILLER_0_31_317
*1200 FILLER_0_31_329
*1201 FILLER_0_31_333
*1202 FILLER_0_31_337
*1203 FILLER_0_31_349
*1204 FILLER_0_31_39
*1205 FILLER_0_31_51
*1206 FILLER_0_31_55
*1207 FILLER_0_31_57
*1208 FILLER_0_31_69
*1209 FILLER_0_31_81
*1210 FILLER_0_31_87
*1211 FILLER_0_31_91
*1212 FILLER_0_31_96
*1213 FILLER_0_32_101
*1214 FILLER_0_32_108
*1215 FILLER_0_32_120
*1216 FILLER_0_32_124
*1217 FILLER_0_32_136
*1218 FILLER_0_32_141
*1219 FILLER_0_32_15
*1220 FILLER_0_32_152
*1221 FILLER_0_32_177
*1222 FILLER_0_32_185
*1223 FILLER_0_32_194
*1224 FILLER_0_32_197
*1225 FILLER_0_32_209
*1226 FILLER_0_32_245
*1227 FILLER_0_32_251
*1228 FILLER_0_32_253
*1229 FILLER_0_32_259
*1230 FILLER_0_32_27
*1231 FILLER_0_32_289
*1232 FILLER_0_32_29
*1233 FILLER_0_32_3
*1234 FILLER_0_32_306
*1235 FILLER_0_32_309
*1236 FILLER_0_32_315
*1237 FILLER_0_32_324
*1238 FILLER_0_32_332
*1239 FILLER_0_32_349
*1240 FILLER_0_32_41
*1241 FILLER_0_32_53
*1242 FILLER_0_32_65
*1243 FILLER_0_32_77
*1244 FILLER_0_32_83
*1245 FILLER_0_33_108
*1246 FILLER_0_33_113
*1247 FILLER_0_33_121
*1248 FILLER_0_33_129
*1249 FILLER_0_33_141
*1250 FILLER_0_33_147
*1251 FILLER_0_33_15
*1252 FILLER_0_33_164
*1253 FILLER_0_33_178
*1254 FILLER_0_33_196
*1255 FILLER_0_33_208
*1256 FILLER_0_33_214
*1257 FILLER_0_33_222
*1258 FILLER_0_33_225
*1259 FILLER_0_33_239
*1260 FILLER_0_33_247
*1261 FILLER_0_33_265
*1262 FILLER_0_33_27
*1263 FILLER_0_33_274
*1264 FILLER_0_33_284
*1265 FILLER_0_33_296
*1266 FILLER_0_33_3
*1267 FILLER_0_33_324
*1268 FILLER_0_33_337
*1269 FILLER_0_33_349
*1270 FILLER_0_33_39
*1271 FILLER_0_33_51
*1272 FILLER_0_33_55
*1273 FILLER_0_33_57
*1274 FILLER_0_33_69
*1275 FILLER_0_33_81
*1276 FILLER_0_33_89
*1277 FILLER_0_33_95
*1278 FILLER_0_34_104
*1279 FILLER_0_34_116
*1280 FILLER_0_34_137
*1281 FILLER_0_34_141
*1282 FILLER_0_34_15
*1283 FILLER_0_34_152
*1284 FILLER_0_34_171
*1285 FILLER_0_34_197
*1286 FILLER_0_34_214
*1287 FILLER_0_34_226
*1288 FILLER_0_34_240
*1289 FILLER_0_34_257
*1290 FILLER_0_34_27
*1291 FILLER_0_34_280
*1292 FILLER_0_34_29
*1293 FILLER_0_34_3
*1294 FILLER_0_34_300
*1295 FILLER_0_34_313
*1296 FILLER_0_34_325
*1297 FILLER_0_34_346
*1298 FILLER_0_34_350
*1299 FILLER_0_34_41
*1300 FILLER_0_34_53
*1301 FILLER_0_34_65
*1302 FILLER_0_34_77
*1303 FILLER_0_34_83
*1304 FILLER_0_34_85
*1305 FILLER_0_35_101
*1306 FILLER_0_35_107
*1307 FILLER_0_35_111
*1308 FILLER_0_35_113
*1309 FILLER_0_35_130
*1310 FILLER_0_35_147
*1311 FILLER_0_35_15
*1312 FILLER_0_35_159
*1313 FILLER_0_35_167
*1314 FILLER_0_35_169
*1315 FILLER_0_35_173
*1316 FILLER_0_35_185
*1317 FILLER_0_35_190
*1318 FILLER_0_35_202
*1319 FILLER_0_35_217
*1320 FILLER_0_35_223
*1321 FILLER_0_35_225
*1322 FILLER_0_35_237
*1323 FILLER_0_35_245
*1324 FILLER_0_35_256
*1325 FILLER_0_35_27
*1326 FILLER_0_35_277
*1327 FILLER_0_35_281
*1328 FILLER_0_35_289
*1329 FILLER_0_35_3
*1330 FILLER_0_35_300
*1331 FILLER_0_35_340
*1332 FILLER_0_35_348
*1333 FILLER_0_35_39
*1334 FILLER_0_35_51
*1335 FILLER_0_35_55
*1336 FILLER_0_35_57
*1337 FILLER_0_35_69
*1338 FILLER_0_35_81
*1339 FILLER_0_35_93
*1340 FILLER_0_36_115
*1341 FILLER_0_36_136
*1342 FILLER_0_36_141
*1343 FILLER_0_36_15
*1344 FILLER_0_36_180
*1345 FILLER_0_36_184
*1346 FILLER_0_36_194
*1347 FILLER_0_36_197
*1348 FILLER_0_36_209
*1349 FILLER_0_36_221
*1350 FILLER_0_36_243
*1351 FILLER_0_36_251
*1352 FILLER_0_36_253
*1353 FILLER_0_36_265
*1354 FILLER_0_36_27
*1355 FILLER_0_36_277
*1356 FILLER_0_36_29
*1357 FILLER_0_36_3
*1358 FILLER_0_36_301
*1359 FILLER_0_36_307
*1360 FILLER_0_36_309
*1361 FILLER_0_36_313
*1362 FILLER_0_36_326
*1363 FILLER_0_36_334
*1364 FILLER_0_36_41
*1365 FILLER_0_36_53
*1366 FILLER_0_36_65
*1367 FILLER_0_36_77
*1368 FILLER_0_36_83
*1369 FILLER_0_36_85
*1370 FILLER_0_36_97
*1371 FILLER_0_37_101
*1372 FILLER_0_37_105
*1373 FILLER_0_37_111
*1374 FILLER_0_37_113
*1375 FILLER_0_37_140
*1376 FILLER_0_37_15
*1377 FILLER_0_37_150
*1378 FILLER_0_37_154
*1379 FILLER_0_37_166
*1380 FILLER_0_37_169
*1381 FILLER_0_37_181
*1382 FILLER_0_37_187
*1383 FILLER_0_37_194
*1384 FILLER_0_37_210
*1385 FILLER_0_37_218
*1386 FILLER_0_37_223
*1387 FILLER_0_37_225
*1388 FILLER_0_37_237
*1389 FILLER_0_37_249
*1390 FILLER_0_37_27
*1391 FILLER_0_37_273
*1392 FILLER_0_37_279
*1393 FILLER_0_37_284
*1394 FILLER_0_37_288
*1395 FILLER_0_37_3
*1396 FILLER_0_37_306
*1397 FILLER_0_37_317
*1398 FILLER_0_37_345
*1399 FILLER_0_37_39
*1400 FILLER_0_37_51
*1401 FILLER_0_37_55
*1402 FILLER_0_37_57
*1403 FILLER_0_37_69
*1404 FILLER_0_37_81
*1405 FILLER_0_37_93
*1406 FILLER_0_38_104
*1407 FILLER_0_38_110
*1408 FILLER_0_38_116
*1409 FILLER_0_38_122
*1410 FILLER_0_38_128
*1411 FILLER_0_38_134
*1412 FILLER_0_38_141
*1413 FILLER_0_38_15
*1414 FILLER_0_38_151
*1415 FILLER_0_38_169
*1416 FILLER_0_38_174
*1417 FILLER_0_38_184
*1418 FILLER_0_38_195
*1419 FILLER_0_38_217
*1420 FILLER_0_38_250
*1421 FILLER_0_38_265
*1422 FILLER_0_38_27
*1423 FILLER_0_38_273
*1424 FILLER_0_38_29
*1425 FILLER_0_38_294
*1426 FILLER_0_38_3
*1427 FILLER_0_38_313
*1428 FILLER_0_38_328
*1429 FILLER_0_38_337
*1430 FILLER_0_38_349
*1431 FILLER_0_38_41
*1432 FILLER_0_38_53
*1433 FILLER_0_38_57
*1434 FILLER_0_38_68
*1435 FILLER_0_38_74
*1436 FILLER_0_38_80
*1437 FILLER_0_38_88
*1438 FILLER_0_38_92
*1439 FILLER_0_38_98
*1440 FILLER_0_3_105
*1441 FILLER_0_3_111
*1442 FILLER_0_3_113
*1443 FILLER_0_3_125
*1444 FILLER_0_3_137
*1445 FILLER_0_3_149
*1446 FILLER_0_3_15
*1447 FILLER_0_3_161
*1448 FILLER_0_3_167
*1449 FILLER_0_3_169
*1450 FILLER_0_3_181
*1451 FILLER_0_3_193
*1452 FILLER_0_3_205
*1453 FILLER_0_3_217
*1454 FILLER_0_3_223
*1455 FILLER_0_3_225
*1456 FILLER_0_3_237
*1457 FILLER_0_3_249
*1458 FILLER_0_3_261
*1459 FILLER_0_3_27
*1460 FILLER_0_3_273
*1461 FILLER_0_3_279
*1462 FILLER_0_3_281
*1463 FILLER_0_3_293
*1464 FILLER_0_3_3
*1465 FILLER_0_3_305
*1466 FILLER_0_3_317
*1467 FILLER_0_3_329
*1468 FILLER_0_3_335
*1469 FILLER_0_3_337
*1470 FILLER_0_3_349
*1471 FILLER_0_3_39
*1472 FILLER_0_3_51
*1473 FILLER_0_3_55
*1474 FILLER_0_3_57
*1475 FILLER_0_3_69
*1476 FILLER_0_3_81
*1477 FILLER_0_3_93
*1478 FILLER_0_4_109
*1479 FILLER_0_4_121
*1480 FILLER_0_4_133
*1481 FILLER_0_4_139
*1482 FILLER_0_4_141
*1483 FILLER_0_4_15
*1484 FILLER_0_4_153
*1485 FILLER_0_4_165
*1486 FILLER_0_4_177
*1487 FILLER_0_4_189
*1488 FILLER_0_4_195
*1489 FILLER_0_4_197
*1490 FILLER_0_4_209
*1491 FILLER_0_4_221
*1492 FILLER_0_4_233
*1493 FILLER_0_4_245
*1494 FILLER_0_4_251
*1495 FILLER_0_4_253
*1496 FILLER_0_4_265
*1497 FILLER_0_4_27
*1498 FILLER_0_4_277
*1499 FILLER_0_4_289
*1500 FILLER_0_4_29
*1501 FILLER_0_4_3
*1502 FILLER_0_4_301
*1503 FILLER_0_4_307
*1504 FILLER_0_4_309
*1505 FILLER_0_4_321
*1506 FILLER_0_4_333
*1507 FILLER_0_4_345
*1508 FILLER_0_4_41
*1509 FILLER_0_4_53
*1510 FILLER_0_4_65
*1511 FILLER_0_4_77
*1512 FILLER_0_4_83
*1513 FILLER_0_4_85
*1514 FILLER_0_4_97
*1515 FILLER_0_5_105
*1516 FILLER_0_5_111
*1517 FILLER_0_5_113
*1518 FILLER_0_5_125
*1519 FILLER_0_5_137
*1520 FILLER_0_5_149
*1521 FILLER_0_5_15
*1522 FILLER_0_5_161
*1523 FILLER_0_5_167
*1524 FILLER_0_5_169
*1525 FILLER_0_5_181
*1526 FILLER_0_5_193
*1527 FILLER_0_5_205
*1528 FILLER_0_5_217
*1529 FILLER_0_5_223
*1530 FILLER_0_5_225
*1531 FILLER_0_5_237
*1532 FILLER_0_5_249
*1533 FILLER_0_5_261
*1534 FILLER_0_5_27
*1535 FILLER_0_5_273
*1536 FILLER_0_5_279