*SPEF "ieee 1481-1999"
*DESIGN "tt_um_topModuleKA"
*DATE "11:11:11 Fri 11 11, 1111"
*VENDOR "OpenRCX"
*PROGRAM "Parallel Extraction"
*VERSION "1.0"
*DESIGN_FLOW "NAME_SCOPE LOCAL" "PIN_CAP NONE"
*DIVIDER /
*DELIMITER :
*BUS_DELIMITER []
*T_UNIT 1 NS
*C_UNIT 1 PF
*R_UNIT 1 OHM
*L_UNIT 1 HENRY

*NAME_MAP
*3 clk
*4 ena
*5 rst_n
*6 ui_in[0]
*7 ui_in[1]
*8 ui_in[2]
*9 ui_in[3]
*10 ui_in[4]
*11 ui_in[5]
*12 ui_in[6]
*13 ui_in[7]
*14 uio_in[0]
*15 uio_in[1]
*16 uio_in[2]
*17 uio_in[3]
*18 uio_in[4]
*19 uio_in[5]
*20 uio_in[6]
*21 uio_in[7]
*22 net16
*23 net17
*24 net18
*25 net19
*26 net20
*27 net21
*28 net22
*29 net23
*30 uio_out[0]
*31 uio_out[1]
*32 uio_out[2]
*33 uio_out[3]
*34 uio_out[4]
*35 net13
*36 net14
*37 net15
*38 uo_out[0]
*39 uo_out[1]
*40 uo_out[2]
*41 uo_out[3]
*42 uo_out[4]
*43 uo_out[5]
*44 uo_out[6]
*45 uo_out[7]
*46 _000_
*47 _001_
*48 _002_
*49 _003_
*50 _004_
*51 _005_
*52 _006_
*53 _007_
*54 _008_
*55 _009_
*56 _010_
*57 _011_
*58 _012_
*59 _013_
*60 _014_
*61 _015_
*62 _016_
*63 _017_
*64 _018_
*65 _019_
*66 _020_
*67 _021_
*68 _022_
*69 _023_
*70 _024_
*71 _025_
*72 _026_
*73 _027_
*74 _028_
*75 _029_
*76 _030_
*77 _031_
*78 _032_
*79 _033_
*80 _034_
*81 _035_
*82 _036_
*83 _037_
*84 _038_
*85 _039_
*86 _040_
*87 _041_
*88 _042_
*89 _043_
*90 _044_
*91 _045_
*92 _046_
*93 _047_
*94 _048_
*95 _049_
*96 _050_
*97 _051_
*98 _052_
*99 _053_
*100 _054_
*101 _055_
*102 _056_
*103 _057_
*104 _058_
*105 _059_
*106 _060_
*107 _061_
*108 _062_
*109 _063_
*110 _064_
*111 _065_
*112 _066_
*113 _067_
*114 _068_
*115 _069_
*116 _070_
*117 _071_
*118 _072_
*119 _073_
*120 _074_
*121 _075_
*122 _076_
*123 _077_
*124 _078_
*125 _079_
*126 _080_
*127 _081_
*128 _082_
*129 _083_
*130 _084_
*131 _085_
*132 _086_
*133 _087_
*134 _088_
*135 _089_
*136 _090_
*137 _091_
*138 _092_
*139 _093_
*140 _094_
*141 _095_
*142 _096_
*143 _097_
*144 _098_
*145 _099_
*146 _100_
*147 _101_
*148 _102_
*149 _103_
*150 _104_
*151 _105_
*152 _106_
*153 _107_
*154 _108_
*155 _109_
*156 _110_
*157 _111_
*158 _112_
*159 _113_
*160 _114_
*161 _115_
*162 _116_
*163 _117_
*164 _118_
*165 _119_
*166 _120_
*167 _121_
*168 _122_
*169 _123_
*170 _124_
*171 _125_
*172 _126_
*173 _127_
*174 _128_
*175 _129_
*176 _130_
*177 _131_
*178 _132_
*179 _133_
*180 _134_
*181 _135_
*182 _136_
*183 _137_
*184 _138_
*185 _139_
*186 _140_
*187 _141_
*188 _142_
*189 _143_
*190 _144_
*191 _145_
*192 _146_
*193 _147_
*194 _148_
*195 _149_
*196 _150_
*197 _151_
*198 _152_
*199 _153_
*200 _154_
*201 _155_
*202 _156_
*203 _157_
*204 _158_
*205 _159_
*206 _160_
*207 _161_
*208 _162_
*209 _163_
*210 _164_
*211 _165_
*212 _166_
*213 _167_
*214 _168_
*215 _169_
*216 _170_
*217 _171_
*218 _172_
*219 _173_
*220 _174_
*221 _175_
*222 _176_
*223 _177_
*224 _178_
*225 _179_
*226 _180_
*227 _181_
*228 _182_
*229 _183_
*230 _184_
*231 _185_
*232 _186_
*233 _187_
*234 _188_
*235 _189_
*236 _190_
*237 _191_
*238 _192_
*239 _193_
*240 _194_
*241 _195_
*242 _196_
*243 _197_
*244 _198_
*245 _199_
*246 _200_
*247 _201_
*248 _202_
*249 _203_
*250 _204_
*251 _205_
*252 _206_
*253 _207_
*254 _208_
*255 _209_
*256 _210_
*257 _211_
*258 _212_
*259 _213_
*260 _214_
*261 _215_
*262 _216_
*263 _217_
*264 _218_
*265 _219_
*266 _220_
*267 _221_
*268 _222_
*269 _223_
*270 _224_
*271 _225_
*272 _226_
*273 _227_
*274 _228_
*275 _229_
*276 _230_
*277 _231_
*278 _232_
*279 _233_
*280 _234_
*281 _235_
*282 _236_
*283 _237_
*284 _238_
*285 _239_
*286 _240_
*287 _241_
*288 _242_
*289 _243_
*290 _244_
*291 _245_
*292 _246_
*293 _247_
*294 _248_
*295 _249_
*296 _250_
*297 _251_
*298 _252_
*299 _253_
*300 _254_
*301 _255_
*302 _256_
*303 _257_
*304 _258_
*305 _259_
*306 _260_
*307 _261_
*308 _262_
*309 _263_
*310 _264_
*311 _265_
*312 _266_
*313 _267_
*314 _268_
*315 _269_
*316 _270_
*317 _271_
*318 _272_
*319 _273_
*320 _274_
*321 _275_
*322 _276_
*323 _277_
*324 _278_
*325 _279_
*326 _280_
*327 _281_
*328 _282_
*329 _283_
*330 _284_
*331 _285_
*332 _286_
*333 _287_
*334 _288_
*335 _289_
*336 _290_
*337 _291_
*338 _292_
*339 _293_
*340 _294_
*341 _295_
*342 _296_
*343 _297_
*344 _298_
*345 _299_
*346 _300_
*347 _301_
*348 _302_
*349 _303_
*350 _304_
*351 _305_
*352 _306_
*353 _307_
*354 _308_
*355 _309_
*356 _310_
*357 _311_
*358 _312_
*359 _313_
*360 _314_
*361 _315_
*362 _316_
*363 _317_
*364 _318_
*365 _319_
*366 _320_
*367 _321_
*368 _322_
*369 _323_
*370 _324_
*371 _325_
*372 clknet_0_clk
*373 clknet_2_0__leaf_clk
*374 clknet_2_1__leaf_clk
*375 clknet_2_2__leaf_clk
*376 clknet_2_3__leaf_clk
*377 lif1\.spike
*378 lif1\.state\[0\]
*379 lif1\.state\[1\]
*380 lif1\.state\[2\]
*381 lif1\.state\[3\]
*382 lif1\.state\[4\]
*383 lif1\.state\[5\]
*384 lif1\.state\[6\]
*385 lif1\.state\[7\]
*386 lif2\.spike
*387 lif2\.state\[0\]
*388 lif2\.state\[1\]
*389 lif2\.state\[2\]
*390 lif2\.state\[3\]
*391 lif2\.state\[4\]
*392 lif2\.state\[5\]
*393 lif2\.state\[6\]
*394 lif2\.state\[7\]
*395 lif3\.spike
*396 lif3\.state\[0\]
*397 lif3\.state\[1\]
*398 lif3\.state\[2\]
*399 lif3\.state\[3\]
*400 lif3\.state\[4\]
*401 lif3\.state\[5\]
*402 lif3\.state\[6\]
*403 lif3\.state\[7\]
*404 lif4\.spike
*405 lif4\.state\[0\]
*406 lif4\.state\[1\]
*407 lif4\.state\[2\]
*408 lif4\.state\[3\]
*409 lif4\.state\[4\]
*410 lif4\.state\[5\]
*411 lif4\.state\[6\]
*412 lif4\.state\[7\]
*413 lif5\.spike
*414 lif5\.state\[0\]
*415 lif5\.state\[1\]
*416 lif5\.state\[2\]
*417 lif5\.state\[3\]
*418 lif5\.state\[4\]
*419 lif5\.state\[5\]
*420 lif5\.state\[6\]
*421 lif5\.state\[7\]
*422 net1
*423 net10
*424 net11
*425 net12
*426 net2
*427 net24
*428 net25
*429 net26
*430 net27
*431 net28
*432 net29
*433 net3
*434 net30
*435 net31
*436 net32
*437 net33
*438 net34
*439 net4
*440 net5
*441 net6
*442 net7
*443 net8
*444 net9
*445 random\.d0
*446 random\.ff0\.q
*447 random\.ffrnd\[1\]\.q
*448 random\.ffrnd\[2\]\.q
*449 random\.ffrnd\[3\]\.q
*450 random\.ffrnd\[4\]\.q
*451 random\.ffrnd\[5\]\.q
*452 random\.ffrnd\[6\]\.q
*453 random\.ffrnd\[7\]\.q
*454 FILLER_0_0_109
*455 FILLER_0_0_113
*456 FILLER_0_0_125
*457 FILLER_0_0_137
*458 FILLER_0_0_141
*459 FILLER_0_0_15
*460 FILLER_0_0_153
*461 FILLER_0_0_165
*462 FILLER_0_0_169
*463 FILLER_0_0_181
*464 FILLER_0_0_193
*465 FILLER_0_0_197
*466 FILLER_0_0_209
*467 FILLER_0_0_221
*468 FILLER_0_0_225
*469 FILLER_0_0_237
*470 FILLER_0_0_249
*471 FILLER_0_0_253
*472 FILLER_0_0_265
*473 FILLER_0_0_27
*474 FILLER_0_0_277
*475 FILLER_0_0_281
*476 FILLER_0_0_29
*477 FILLER_0_0_293
*478 FILLER_0_0_3
*479 FILLER_0_0_305
*480 FILLER_0_0_309
*481 FILLER_0_0_321
*482 FILLER_0_0_333
*483 FILLER_0_0_337
*484 FILLER_0_0_349
*485 FILLER_0_0_41
*486 FILLER_0_0_53
*487 FILLER_0_0_57
*488 FILLER_0_0_69
*489 FILLER_0_0_81
*490 FILLER_0_0_85
*491 FILLER_0_0_97
*492 FILLER_0_10_109
*493 FILLER_0_10_121
*494 FILLER_0_10_133
*495 FILLER_0_10_139
*496 FILLER_0_10_141
*497 FILLER_0_10_15
*498 FILLER_0_10_153
*499 FILLER_0_10_165
*500 FILLER_0_10_177
*501 FILLER_0_10_189
*502 FILLER_0_10_195
*503 FILLER_0_10_197
*504 FILLER_0_10_209
*505 FILLER_0_10_221
*506 FILLER_0_10_233
*507 FILLER_0_10_245
*508 FILLER_0_10_251
*509 FILLER_0_10_253
*510 FILLER_0_10_265
*511 FILLER_0_10_27
*512 FILLER_0_10_277
*513 FILLER_0_10_289
*514 FILLER_0_10_29
*515 FILLER_0_10_3
*516 FILLER_0_10_301
*517 FILLER_0_10_307
*518 FILLER_0_10_309
*519 FILLER_0_10_321
*520 FILLER_0_10_333
*521 FILLER_0_10_345
*522 FILLER_0_10_41
*523 FILLER_0_10_53
*524 FILLER_0_10_65
*525 FILLER_0_10_77
*526 FILLER_0_10_83
*527 FILLER_0_10_85
*528 FILLER_0_10_97
*529 FILLER_0_11_105
*530 FILLER_0_11_111
*531 FILLER_0_11_113
*532 FILLER_0_11_125
*533 FILLER_0_11_137
*534 FILLER_0_11_149
*535 FILLER_0_11_15
*536 FILLER_0_11_161
*537 FILLER_0_11_167
*538 FILLER_0_11_169
*539 FILLER_0_11_181
*540 FILLER_0_11_193
*541 FILLER_0_11_205
*542 FILLER_0_11_217
*543 FILLER_0_11_223
*544 FILLER_0_11_225
*545 FILLER_0_11_237
*546 FILLER_0_11_249
*547 FILLER_0_11_261
*548 FILLER_0_11_27
*549 FILLER_0_11_273
*550 FILLER_0_11_279
*551 FILLER_0_11_281
*552 FILLER_0_11_293
*553 FILLER_0_11_3
*554 FILLER_0_11_305
*555 FILLER_0_11_317
*556 FILLER_0_11_329
*557 FILLER_0_11_335
*558 FILLER_0_11_337
*559 FILLER_0_11_349
*560 FILLER_0_11_39
*561 FILLER_0_11_51
*562 FILLER_0_11_55
*563 FILLER_0_11_57
*564 FILLER_0_11_69
*565 FILLER_0_11_81
*566 FILLER_0_11_93
*567 FILLER_0_12_109
*568 FILLER_0_12_121
*569 FILLER_0_12_133
*570 FILLER_0_12_139
*571 FILLER_0_12_141
*572 FILLER_0_12_15
*573 FILLER_0_12_153
*574 FILLER_0_12_165
*575 FILLER_0_12_177
*576 FILLER_0_12_189
*577 FILLER_0_12_195
*578 FILLER_0_12_197
*579 FILLER_0_12_209
*580 FILLER_0_12_221
*581 FILLER_0_12_233
*582 FILLER_0_12_245
*583 FILLER_0_12_251
*584 FILLER_0_12_253
*585 FILLER_0_12_265
*586 FILLER_0_12_27
*587 FILLER_0_12_277
*588 FILLER_0_12_289
*589 FILLER_0_12_29
*590 FILLER_0_12_3
*591 FILLER_0_12_301
*592 FILLER_0_12_307
*593 FILLER_0_12_309
*594 FILLER_0_12_321
*595 FILLER_0_12_333
*596 FILLER_0_12_345
*597 FILLER_0_12_41
*598 FILLER_0_12_53
*599 FILLER_0_12_65
*600 FILLER_0_12_77
*601 FILLER_0_12_83
*602 FILLER_0_12_85
*603 FILLER_0_12_97
*604 FILLER_0_13_105
*605 FILLER_0_13_111
*606 FILLER_0_13_113
*607 FILLER_0_13_125
*608 FILLER_0_13_137
*609 FILLER_0_13_149
*610 FILLER_0_13_15
*611 FILLER_0_13_161
*612 FILLER_0_13_167
*613 FILLER_0_13_169
*614 FILLER_0_13_181
*615 FILLER_0_13_193
*616 FILLER_0_13_205
*617 FILLER_0_13_217
*618 FILLER_0_13_223
*619 FILLER_0_13_225
*620 FILLER_0_13_237
*621 FILLER_0_13_249
*622 FILLER_0_13_261
*623 FILLER_0_13_27
*624 FILLER_0_13_273
*625 FILLER_0_13_279
*626 FILLER_0_13_281
*627 FILLER_0_13_293
*628 FILLER_0_13_3
*629 FILLER_0_13_305
*630 FILLER_0_13_317
*631 FILLER_0_13_329
*632 FILLER_0_13_335
*633 FILLER_0_13_337
*634 FILLER_0_13_349
*635 FILLER_0_13_39
*636 FILLER_0_13_51
*637 FILLER_0_13_55
*638 FILLER_0_13_57
*639 FILLER_0_13_69
*640 FILLER_0_13_81
*641 FILLER_0_13_93
*642 FILLER_0_14_109
*643 FILLER_0_14_121
*644 FILLER_0_14_133
*645 FILLER_0_14_139
*646 FILLER_0_14_141
*647 FILLER_0_14_15
*648 FILLER_0_14_153
*649 FILLER_0_14_165
*650 FILLER_0_14_177
*651 FILLER_0_14_189
*652 FILLER_0_14_195
*653 FILLER_0_14_197
*654 FILLER_0_14_209
*655 FILLER_0_14_221
*656 FILLER_0_14_233
*657 FILLER_0_14_245
*658 FILLER_0_14_251
*659 FILLER_0_14_253
*660 FILLER_0_14_265
*661 FILLER_0_14_27
*662 FILLER_0_14_277
*663 FILLER_0_14_289
*664 FILLER_0_14_29
*665 FILLER_0_14_3
*666 FILLER_0_14_301
*667 FILLER_0_14_307
*668 FILLER_0_14_309
*669 FILLER_0_14_321
*670 FILLER_0_14_333
*671 FILLER_0_14_345
*672 FILLER_0_14_41
*673 FILLER_0_14_53
*674 FILLER_0_14_65
*675 FILLER_0_14_77
*676 FILLER_0_14_83
*677 FILLER_0_14_85
*678 FILLER_0_14_97
*679 FILLER_0_15_105
*680 FILLER_0_15_111
*681 FILLER_0_15_113
*682 FILLER_0_15_125
*683 FILLER_0_15_137
*684 FILLER_0_15_149
*685 FILLER_0_15_15
*686 FILLER_0_15_161
*687 FILLER_0_15_167
*688 FILLER_0_15_169
*689 FILLER_0_15_181
*690 FILLER_0_15_193
*691 FILLER_0_15_205
*692 FILLER_0_15_217
*693 FILLER_0_15_223
*694 FILLER_0_15_225
*695 FILLER_0_15_237
*696 FILLER_0_15_249
*697 FILLER_0_15_261
*698 FILLER_0_15_27
*699 FILLER_0_15_273
*700 FILLER_0_15_279
*701 FILLER_0_15_281
*702 FILLER_0_15_293
*703 FILLER_0_15_3
*704 FILLER_0_15_305
*705 FILLER_0_15_317
*706 FILLER_0_15_329
*707 FILLER_0_15_335
*708 FILLER_0_15_337
*709 FILLER_0_15_349
*710 FILLER_0_15_39
*711 FILLER_0_15_51
*712 FILLER_0_15_55
*713 FILLER_0_15_57
*714 FILLER_0_15_69
*715 FILLER_0_15_81
*716 FILLER_0_15_93
*717 FILLER_0_16_109
*718 FILLER_0_16_121
*719 FILLER_0_16_133
*720 FILLER_0_16_139
*721 FILLER_0_16_141
*722 FILLER_0_16_15
*723 FILLER_0_16_153
*724 FILLER_0_16_165
*725 FILLER_0_16_177
*726 FILLER_0_16_189
*727 FILLER_0_16_195
*728 FILLER_0_16_197
*729 FILLER_0_16_209
*730 FILLER_0_16_221
*731 FILLER_0_16_233
*732 FILLER_0_16_245
*733 FILLER_0_16_251
*734 FILLER_0_16_253
*735 FILLER_0_16_265
*736 FILLER_0_16_27
*737 FILLER_0_16_277
*738 FILLER_0_16_289
*739 FILLER_0_16_29
*740 FILLER_0_16_3
*741 FILLER_0_16_301
*742 FILLER_0_16_307
*743 FILLER_0_16_309
*744 FILLER_0_16_321
*745 FILLER_0_16_333
*746 FILLER_0_16_345
*747 FILLER_0_16_41
*748 FILLER_0_16_53
*749 FILLER_0_16_65
*750 FILLER_0_16_77
*751 FILLER_0_16_83
*752 FILLER_0_16_85
*753 FILLER_0_16_97
*754 FILLER_0_17_105
*755 FILLER_0_17_111
*756 FILLER_0_17_113
*757 FILLER_0_17_125
*758 FILLER_0_17_137
*759 FILLER_0_17_149
*760 FILLER_0_17_15
*761 FILLER_0_17_161
*762 FILLER_0_17_167
*763 FILLER_0_17_169
*764 FILLER_0_17_181
*765 FILLER_0_17_193
*766 FILLER_0_17_205
*767 FILLER_0_17_217
*768 FILLER_0_17_223
*769 FILLER_0_17_225
*770 FILLER_0_17_237
*771 FILLER_0_17_249
*772 FILLER_0_17_261
*773 FILLER_0_17_27
*774 FILLER_0_17_273
*775 FILLER_0_17_279
*776 FILLER_0_17_281
*777 FILLER_0_17_293
*778 FILLER_0_17_3
*779 FILLER_0_17_305
*780 FILLER_0_17_317
*781 FILLER_0_17_329
*782 FILLER_0_17_335
*783 FILLER_0_17_337
*784 FILLER_0_17_349
*785 FILLER_0_17_39
*786 FILLER_0_17_51
*787 FILLER_0_17_55
*788 FILLER_0_17_57
*789 FILLER_0_17_69
*790 FILLER_0_17_81
*791 FILLER_0_17_93
*792 FILLER_0_18_109
*793 FILLER_0_18_121
*794 FILLER_0_18_133
*795 FILLER_0_18_139
*796 FILLER_0_18_141
*797 FILLER_0_18_15
*798 FILLER_0_18_153
*799 FILLER_0_18_165
*800 FILLER_0_18_173
*801 FILLER_0_18_182
*802 FILLER_0_18_194
*803 FILLER_0_18_197
*804 FILLER_0_18_209
*805 FILLER_0_18_221
*806 FILLER_0_18_233
*807 FILLER_0_18_245
*808 FILLER_0_18_251
*809 FILLER_0_18_253
*810 FILLER_0_18_265
*811 FILLER_0_18_27
*812 FILLER_0_18_277
*813 FILLER_0_18_289
*814 FILLER_0_18_29
*815 FILLER_0_18_3
*816 FILLER_0_18_301
*817 FILLER_0_18_307
*818 FILLER_0_18_309
*819 FILLER_0_18_321
*820 FILLER_0_18_333
*821 FILLER_0_18_345
*822 FILLER_0_18_41
*823 FILLER_0_18_53
*824 FILLER_0_18_65
*825 FILLER_0_18_77
*826 FILLER_0_18_83
*827 FILLER_0_18_85
*828 FILLER_0_18_97
*829 FILLER_0_19_105
*830 FILLER_0_19_111
*831 FILLER_0_19_121
*832 FILLER_0_19_146
*833 FILLER_0_19_15
*834 FILLER_0_19_158
*835 FILLER_0_19_166
*836 FILLER_0_19_189
*837 FILLER_0_19_201
*838 FILLER_0_19_213
*839 FILLER_0_19_221
*840 FILLER_0_19_225
*841 FILLER_0_19_237
*842 FILLER_0_19_263
*843 FILLER_0_19_269
*844 FILLER_0_19_27
*845 FILLER_0_19_278
*846 FILLER_0_19_289
*847 FILLER_0_19_3
*848 FILLER_0_19_301
*849 FILLER_0_19_313
*850 FILLER_0_19_325
*851 FILLER_0_19_333
*852 FILLER_0_19_337
*853 FILLER_0_19_349
*854 FILLER_0_19_39
*855 FILLER_0_19_51
*856 FILLER_0_19_55
*857 FILLER_0_19_57
*858 FILLER_0_19_69
*859 FILLER_0_19_81
*860 FILLER_0_19_93
*861 FILLER_0_1_105
*862 FILLER_0_1_111
*863 FILLER_0_1_113
*864 FILLER_0_1_125
*865 FILLER_0_1_137
*866 FILLER_0_1_149
*867 FILLER_0_1_15
*868 FILLER_0_1_161
*869 FILLER_0_1_167
*870 FILLER_0_1_169
*871 FILLER_0_1_181
*872 FILLER_0_1_193
*873 FILLER_0_1_205
*874 FILLER_0_1_217
*875 FILLER_0_1_223
*876 FILLER_0_1_225
*877 FILLER_0_1_237
*878 FILLER_0_1_249
*879 FILLER_0_1_261
*880 FILLER_0_1_27
*881 FILLER_0_1_273
*882 FILLER_0_1_279
*883 FILLER_0_1_281
*884 FILLER_0_1_293
*885 FILLER_0_1_3
*886 FILLER_0_1_305
*887 FILLER_0_1_317
*888 FILLER_0_1_329
*889 FILLER_0_1_335
*890 FILLER_0_1_337
*891 FILLER_0_1_349
*892 FILLER_0_1_39
*893 FILLER_0_1_51
*894 FILLER_0_1_55
*895 FILLER_0_1_57
*896 FILLER_0_1_69
*897 FILLER_0_1_81
*898 FILLER_0_1_93
*899 FILLER_0_20_141
*900 FILLER_0_20_15
*901 FILLER_0_20_165
*902 FILLER_0_20_197
*903 FILLER_0_20_206
*904 FILLER_0_20_239
*905 FILLER_0_20_251
*906 FILLER_0_20_253
*907 FILLER_0_20_261
*908 FILLER_0_20_269
*909 FILLER_0_20_27
*910 FILLER_0_20_29
*911 FILLER_0_20_292
*912 FILLER_0_20_3
*913 FILLER_0_20_304
*914 FILLER_0_20_309
*915 FILLER_0_20_321
*916 FILLER_0_20_333
*917 FILLER_0_20_345
*918 FILLER_0_20_41
*919 FILLER_0_20_53
*920 FILLER_0_20_65
*921 FILLER_0_20_77
*922 FILLER_0_20_83
*923 FILLER_0_20_85
*924 FILLER_0_20_89
*925 FILLER_0_21_109
*926 FILLER_0_21_113
*927 FILLER_0_21_125
*928 FILLER_0_21_135
*929 FILLER_0_21_142
*930 FILLER_0_21_149
*931 FILLER_0_21_15
*932 FILLER_0_21_161
*933 FILLER_0_21_167
*934 FILLER_0_21_169
*935 FILLER_0_21_193
*936 FILLER_0_21_201
*937 FILLER_0_21_213
*938 FILLER_0_21_221
*939 FILLER_0_21_225
*940 FILLER_0_21_229
*941 FILLER_0_21_237
*942 FILLER_0_21_247
*943 FILLER_0_21_253
*944 FILLER_0_21_265
*945 FILLER_0_21_27
*946 FILLER_0_21_279
*947 FILLER_0_21_281
*948 FILLER_0_21_289
*949 FILLER_0_21_3
*950 FILLER_0_21_309
*951 FILLER_0_21_321
*952 FILLER_0_21_333
*953 FILLER_0_21_337
*954 FILLER_0_21_349
*955 FILLER_0_21_39
*956 FILLER_0_21_51
*957 FILLER_0_21_55
*958 FILLER_0_21_57
*959 FILLER_0_21_69
*960 FILLER_0_21_97
*961 FILLER_0_22_103
*962 FILLER_0_22_124
*963 FILLER_0_22_134
*964 FILLER_0_22_141
*965 FILLER_0_22_148
*966 FILLER_0_22_15
*967 FILLER_0_22_165
*968 FILLER_0_22_179
*969 FILLER_0_22_194
*970 FILLER_0_22_219
*971 FILLER_0_22_230
*972 FILLER_0_22_242
*973 FILLER_0_22_250
*974 FILLER_0_22_268
*975 FILLER_0_22_27
*976 FILLER_0_22_274
*977 FILLER_0_22_29
*978 FILLER_0_22_290
*979 FILLER_0_22_3
*980 FILLER_0_22_302
*981 FILLER_0_22_309
*982 FILLER_0_22_321
*983 FILLER_0_22_333
*984 FILLER_0_22_345
*985 FILLER_0_22_41
*986 FILLER_0_22_53
*987 FILLER_0_22_65
*988 FILLER_0_22_73
*989 FILLER_0_22_80
*990 FILLER_0_22_85
*991 FILLER_0_23_104
*992 FILLER_0_23_113
*993 FILLER_0_23_125
*994 FILLER_0_23_137
*995 FILLER_0_23_15
*996 FILLER_0_23_151
*997 FILLER_0_23_163
*998 FILLER_0_23_167
*999 FILLER_0_23_190
*1000 FILLER_0_23_202
*1001 FILLER_0_23_214
*1002 FILLER_0_23_229
*1003 FILLER_0_23_233
*1004 FILLER_0_23_253
*1005 FILLER_0_23_262
*1006 FILLER_0_23_27
*1007 FILLER_0_23_270
*1008 FILLER_0_23_298
*1009 FILLER_0_23_3
*1010 FILLER_0_23_312
*1011 FILLER_0_23_324
*1012 FILLER_0_23_337
*1013 FILLER_0_23_349
*1014 FILLER_0_23_39
*1015 FILLER_0_23_51
*1016 FILLER_0_23_55
*1017 FILLER_0_23_57
*1018 FILLER_0_23_69
*1019 FILLER_0_23_73
*1020 FILLER_0_23_84
*1021 FILLER_0_24_104
*1022 FILLER_0_24_15
*1023 FILLER_0_24_150
*1024 FILLER_0_24_165
*1025 FILLER_0_24_178
*1026 FILLER_0_24_189
*1027 FILLER_0_24_195
*1028 FILLER_0_24_218
*1029 FILLER_0_24_226
*1030 FILLER_0_24_251
*1031 FILLER_0_24_27
*1032 FILLER_0_24_270
*1033 FILLER_0_24_282
*1034 FILLER_0_24_29
*1035 FILLER_0_24_294
*1036 FILLER_0_24_3
*1037 FILLER_0_24_306
*1038 FILLER_0_24_309
*1039 FILLER_0_24_321
*1040 FILLER_0_24_329
*1041 FILLER_0_24_347
*1042 FILLER_0_24_41
*1043 FILLER_0_24_53
*1044 FILLER_0_24_65
*1045 FILLER_0_24_77
*1046 FILLER_0_24_83
*1047 FILLER_0_24_85
*1048 FILLER_0_24_92
*1049 FILLER_0_25_104
*1050 FILLER_0_25_108
*1051 FILLER_0_25_130
*1052 FILLER_0_25_15
*1053 FILLER_0_25_150
*1054 FILLER_0_25_161
*1055 FILLER_0_25_167
*1056 FILLER_0_25_169
*1057 FILLER_0_25_179
*1058 FILLER_0_25_203
*1059 FILLER_0_25_209
*1060 FILLER_0_25_217
*1061 FILLER_0_25_223
*1062 FILLER_0_25_252
*1063 FILLER_0_25_261
*1064 FILLER_0_25_27
*1065 FILLER_0_25_281
*1066 FILLER_0_25_3
*1067 FILLER_0_25_303
*1068 FILLER_0_25_322
*1069 FILLER_0_25_330
*1070 FILLER_0_25_334
*1071 FILLER_0_25_337
*1072 FILLER_0_25_349
*1073 FILLER_0_25_39
*1074 FILLER_0_25_51
*1075 FILLER_0_25_55
*1076 FILLER_0_25_57
*1077 FILLER_0_25_69
*1078 FILLER_0_25_81
*1079 FILLER_0_25_87
*1080 FILLER_0_26_119
*1081 FILLER_0_26_141
*1082 FILLER_0_26_15
*1083 FILLER_0_26_153
*1084 FILLER_0_26_163
*1085 FILLER_0_26_169
*1086 FILLER_0_26_178
*1087 FILLER_0_26_197
*1088 FILLER_0_26_205
*1089 FILLER_0_26_219
*1090 FILLER_0_26_231
*1091 FILLER_0_26_243
*1092 FILLER_0_26_251
*1093 FILLER_0_26_261
*1094 FILLER_0_26_27
*1095 FILLER_0_26_273
*1096 FILLER_0_26_285
*1097 FILLER_0_26_29
*1098 FILLER_0_26_291
*1099 FILLER_0_26_3
*1100 FILLER_0_26_303
*1101 FILLER_0_26_307
*1102 FILLER_0_26_312
*1103 FILLER_0_26_324
*1104 FILLER_0_26_331
*1105 FILLER_0_26_337
*1106 FILLER_0_26_349
*1107 FILLER_0_26_41
*1108 FILLER_0_26_53
*1109 FILLER_0_26_65
*1110 FILLER_0_26_77
*1111 FILLER_0_26_83
*1112 FILLER_0_26_85
*1113 FILLER_0_26_97
*1114 FILLER_0_27_103
*1115 FILLER_0_27_107
*1116 FILLER_0_27_111
*1117 FILLER_0_27_113
*1118 FILLER_0_27_118
*1119 FILLER_0_27_126
*1120 FILLER_0_27_136
*1121 FILLER_0_27_15
*1122 FILLER_0_27_163
*1123 FILLER_0_27_167
*1124 FILLER_0_27_178
*1125 FILLER_0_27_208
*1126 FILLER_0_27_219
*1127 FILLER_0_27_223
*1128 FILLER_0_27_225
*1129 FILLER_0_27_232
*1130 FILLER_0_27_255
*1131 FILLER_0_27_263
*1132 FILLER_0_27_27
*1133 FILLER_0_27_275
*1134 FILLER_0_27_279
*1135 FILLER_0_27_281
*1136 FILLER_0_27_299
*1137 FILLER_0_27_3
*1138 FILLER_0_27_318
*1139 FILLER_0_27_324
*1140 FILLER_0_27_335
*1141 FILLER_0_27_337
*1142 FILLER_0_27_349
*1143 FILLER_0_27_39
*1144 FILLER_0_27_51
*1145 FILLER_0_27_55
*1146 FILLER_0_27_57
*1147 FILLER_0_27_74
*1148 FILLER_0_27_95
*1149 FILLER_0_28_112
*1150 FILLER_0_28_138
*1151 FILLER_0_28_144
*1152 FILLER_0_28_15
*1153 FILLER_0_28_156
*1154 FILLER_0_28_160
*1155 FILLER_0_28_170
*1156 FILLER_0_28_191
*1157 FILLER_0_28_195
*1158 FILLER_0_28_201
*1159 FILLER_0_28_218
*1160 FILLER_0_28_236
*1161 FILLER_0_28_242
*1162 FILLER_0_28_249
*1163 FILLER_0_28_253
*1164 FILLER_0_28_261
*1165 FILLER_0_28_27
*1166 FILLER_0_28_277
*1167 FILLER_0_28_29
*1168 FILLER_0_28_3
*1169 FILLER_0_28_301
*1170 FILLER_0_28_307
*1171 FILLER_0_28_321
*1172 FILLER_0_28_333
*1173 FILLER_0_28_345
*1174 FILLER_0_28_41
*1175 FILLER_0_28_53
*1176 FILLER_0_28_67
*1177 FILLER_0_28_75
*1178 FILLER_0_28_92
*1179 FILLER_0_29_106
*1180 FILLER_0_29_133
*1181 FILLER_0_29_144
*1182 FILLER_0_29_15
*1183 FILLER_0_29_165
*1184 FILLER_0_29_169
*1185 FILLER_0_29_180
*1186 FILLER_0_29_219
*1187 FILLER_0_29_223
*1188 FILLER_0_29_225
*1189 FILLER_0_29_237
*1190 FILLER_0_29_246
*1191 FILLER_0_29_254
*1192 FILLER_0_29_27
*1193 FILLER_0_29_281
*1194 FILLER_0_29_293
*1195 FILLER_0_29_3
*1196 FILLER_0_29_305
*1197 FILLER_0_29_318
*1198 FILLER_0_29_332
*1199 FILLER_0_29_337
*1200 FILLER_0_29_348
*1201 FILLER_0_29_39
*1202 FILLER_0_29_51
*1203 FILLER_0_29_55
*1204 FILLER_0_29_65
*1205 FILLER_0_29_77
*1206 FILLER_0_29_89
*1207 FILLER_0_29_97
*1208 FILLER_0_2_109
*1209 FILLER_0_2_121
*1210 FILLER_0_2_133
*1211 FILLER_0_2_139
*1212 FILLER_0_2_141
*1213 FILLER_0_2_15
*1214 FILLER_0_2_153
*1215 FILLER_0_2_165
*1216 FILLER_0_2_177
*1217 FILLER_0_2_189
*1218 FILLER_0_2_195
*1219 FILLER_0_2_197
*1220 FILLER_0_2_209
*1221 FILLER_0_2_221
*1222 FILLER_0_2_233
*1223 FILLER_0_2_245
*1224 FILLER_0_2_251
*1225 FILLER_0_2_253
*1226 FILLER_0_2_265
*1227 FILLER_0_2_27
*1228 FILLER_0_2_277
*1229 FILLER_0_2_289
*1230 FILLER_0_2_29
*1231 FILLER_0_2_3
*1232 FILLER_0_2_301
*1233 FILLER_0_2_307
*1234 FILLER_0_2_309
*1235 FILLER_0_2_321
*1236 FILLER_0_2_333
*1237 FILLER_0_2_345
*1238 FILLER_0_2_41
*1239 FILLER_0_2_53
*1240 FILLER_0_2_65
*1241 FILLER_0_2_77
*1242 FILLER_0_2_83
*1243 FILLER_0_2_85
*1244 FILLER_0_2_97
*1245 FILLER_0_30_101
*1246 FILLER_0_30_126
*1247 FILLER_0_30_137
*1248 FILLER_0_30_15
*1249 FILLER_0_30_151
*1250 FILLER_0_30_159
*1251 FILLER_0_30_167
*1252 FILLER_0_30_185
*1253 FILLER_0_30_193
*1254 FILLER_0_30_210
*1255 FILLER_0_30_214
*1256 FILLER_0_30_223
*1257 FILLER_0_30_251
*1258 FILLER_0_30_253
*1259 FILLER_0_30_261
*1260 FILLER_0_30_27
*1261 FILLER_0_30_283
*1262 FILLER_0_30_29
*1263 FILLER_0_30_3
*1264 FILLER_0_30_302
*1265 FILLER_0_30_309
*1266 FILLER_0_30_321
*1267 FILLER_0_30_330
*1268 FILLER_0_30_334
*1269 FILLER_0_30_41
*1270 FILLER_0_30_53
*1271 FILLER_0_30_65
*1272 FILLER_0_30_79
*1273 FILLER_0_30_83
*1274 FILLER_0_30_85
*1275 FILLER_0_31_113
*1276 FILLER_0_31_125
*1277 FILLER_0_31_129
*1278 FILLER_0_31_143
*1279 FILLER_0_31_15
*1280 FILLER_0_31_151
*1281 FILLER_0_31_167
*1282 FILLER_0_31_175
*1283 FILLER_0_31_221
*1284 FILLER_0_31_237
*1285 FILLER_0_31_244
*1286 FILLER_0_31_256
*1287 FILLER_0_31_269
*1288 FILLER_0_31_27
*1289 FILLER_0_31_277
*1290 FILLER_0_31_281
*1291 FILLER_0_31_293
*1292 FILLER_0_31_3
*1293 FILLER_0_31_301
*1294 FILLER_0_31_318
*1295 FILLER_0_31_330
*1296 FILLER_0_31_337
*1297 FILLER_0_31_349
*1298 FILLER_0_31_39
*1299 FILLER_0_31_45
*1300 FILLER_0_31_57
*1301 FILLER_0_31_68
*1302 FILLER_0_31_80
*1303 FILLER_0_31_84
*1304 FILLER_0_31_90
*1305 FILLER_0_32_121
*1306 FILLER_0_32_133
*1307 FILLER_0_32_139
*1308 FILLER_0_32_148
*1309 FILLER_0_32_15
*1310 FILLER_0_32_156
*1311 FILLER_0_32_175
*1312 FILLER_0_32_195
*1313 FILLER_0_32_233
*1314 FILLER_0_32_253
*1315 FILLER_0_32_27
*1316 FILLER_0_32_285
*1317 FILLER_0_32_29
*1318 FILLER_0_32_3
*1319 FILLER_0_32_309
*1320 FILLER_0_32_313
*1321 FILLER_0_32_37
*1322 FILLER_0_32_55
*1323 FILLER_0_32_63
*1324 FILLER_0_32_73
*1325 FILLER_0_32_81
*1326 FILLER_0_32_95
*1327 FILLER_0_33_103
*1328 FILLER_0_33_111
*1329 FILLER_0_33_113
*1330 FILLER_0_33_126
*1331 FILLER_0_33_140
*1332 FILLER_0_33_148
*1333 FILLER_0_33_15
*1334 FILLER_0_33_156
*1335 FILLER_0_33_183
*1336 FILLER_0_33_213
*1337 FILLER_0_33_221
*1338 FILLER_0_33_225
*1339 FILLER_0_33_236
*1340 FILLER_0_33_243
*1341 FILLER_0_33_255
*1342 FILLER_0_33_263
*1343 FILLER_0_33_27
*1344 FILLER_0_33_272
*1345 FILLER_0_33_281
*1346 FILLER_0_33_287
*1347 FILLER_0_33_295
*1348 FILLER_0_33_3
*1349 FILLER_0_33_307
*1350 FILLER_0_33_311
*1351 FILLER_0_33_317
*1352 FILLER_0_33_325
*1353 FILLER_0_33_334
*1354 FILLER_0_33_337
*1355 FILLER_0_33_349
*1356 FILLER_0_33_39
*1357 FILLER_0_33_47
*1358 FILLER_0_33_51
*1359 FILLER_0_33_55
*1360 FILLER_0_33_57
*1361 FILLER_0_33_75
*1362 FILLER_0_33_87
*1363 FILLER_0_34_114
*1364 FILLER_0_34_123
*1365 FILLER_0_34_141
*1366 FILLER_0_34_145
*1367 FILLER_0_34_15
*1368 FILLER_0_34_162
*1369 FILLER_0_34_181
*1370 FILLER_0_34_193
*1371 FILLER_0_34_197
*1372 FILLER_0_34_203
*1373 FILLER_0_34_223
*1374 FILLER_0_34_246
*1375 FILLER_0_34_253
*1376 FILLER_0_34_261
*1377 FILLER_0_34_268
*1378 FILLER_0_34_27
*1379 FILLER_0_34_283
*1380 FILLER_0_34_289
*1381 FILLER_0_34_29
*1382 FILLER_0_34_3
*1383 FILLER_0_34_301
*1384 FILLER_0_34_309
*1385 FILLER_0_34_326
*1386 FILLER_0_34_335
*1387 FILLER_0_34_347
*1388 FILLER_0_34_41
*1389 FILLER_0_34_69
*1390 FILLER_0_34_75
*1391 FILLER_0_34_83
*1392 FILLER_0_34_85
*1393 FILLER_0_34_92
*1394 FILLER_0_34_97
*1395 FILLER_0_35_102
*1396 FILLER_0_35_110
*1397 FILLER_0_35_113
*1398 FILLER_0_35_121
*1399 FILLER_0_35_130
*1400 FILLER_0_35_142
*1401 FILLER_0_35_15
*1402 FILLER_0_35_152
*1403 FILLER_0_35_176
*1404 FILLER_0_35_182
*1405 FILLER_0_35_199
*1406 FILLER_0_35_207
*1407 FILLER_0_35_218
*1408 FILLER_0_35_225
*1409 FILLER_0_35_236
*1410 FILLER_0_35_263
*1411 FILLER_0_35_27
*1412 FILLER_0_35_275
*1413 FILLER_0_35_279
*1414 FILLER_0_35_281
*1415 FILLER_0_35_291
*1416 FILLER_0_35_299
*1417 FILLER_0_35_3
*1418 FILLER_0_35_309
*1419 FILLER_0_35_317
*1420 FILLER_0_35_321
*1421 FILLER_0_35_333
*1422 FILLER_0_35_340
*1423 FILLER_0_35_348
*1424 FILLER_0_35_39
*1425 FILLER_0_35_51
*1426 FILLER_0_35_55
*1427 FILLER_0_35_95
*1428 FILLER_0_36_116
*1429 FILLER_0_36_123
*1430 FILLER_0_36_135
*1431 FILLER_0_36_139
*1432 FILLER_0_36_141
*1433 FILLER_0_36_145
*1434 FILLER_0_36_15
*1435 FILLER_0_36_156
*1436 FILLER_0_36_180
*1437 FILLER_0_36_192
*1438 FILLER_0_36_197
*1439 FILLER_0_36_205
*1440 FILLER_0_36_217
*1441 FILLER_0_36_225
*1442 FILLER_0_36_242
*1443 FILLER_0_36_250
*1444 FILLER_0_36_260
*1445 FILLER_0_36_268
*1446 FILLER_0_36_27
*1447 FILLER_0_36_279
*1448 FILLER_0_36_288
*1449 FILLER_0_36_29
*1450 FILLER_0_36_296
*1451 FILLER_0_36_3
*1452 FILLER_0_36_304
*1453 FILLER_0_36_309
*1454 FILLER_0_36_317
*1455 FILLER_0_36_333
*1456 FILLER_0_36_41
*1457 FILLER_0_36_53
*1458 FILLER_0_36_65
*1459 FILLER_0_36_77
*1460 FILLER_0_36_82
*1461 FILLER_0_36_85
*1462 FILLER_0_36_93
*1463 FILLER_0_37_105
*1464 FILLER_0_37_111
*1465 FILLER_0_37_113
*1466 FILLER_0_37_132
*1467 FILLER_0_37_143
*1468 FILLER_0_37_15
*1469 FILLER_0_37_150
*1470 FILLER_0_37_162
*1471 FILLER_0_37_169
*1472 FILLER_0_37_177
*1473 FILLER_0_37_181
*1474 FILLER_0_37_193
*1475 FILLER_0_37_202
*1476 FILLER_0_37_219
*1477 FILLER_0_37_223
*1478 FILLER_0_37_225
*1479 FILLER_0_37_237
*1480 FILLER_0_37_241
*1481 FILLER_0_37_247
*1482 FILLER_0_37_267
*1483 FILLER_0_37_27
*1484 FILLER_0_37_278
*1485 FILLER_0_37_284
*1486 FILLER_0_37_295
*1487 FILLER_0_37_3
*1488 FILLER_0_37_311
*1489 FILLER_0_37_324
*1490 FILLER_0_37_337
*1491 FILLER_0_37_349
*1492 FILLER_0_37_39
*1493 FILLER_0_37_51
*1494 FILLER_0_37_55
*1495 FILLER_0_37_57
*1496 FILLER_0_37_69
*1497 FILLER_0_37_81
*1498 FILLER_0_37_93
*1499 FILLER_0_38_104
*1500 FILLER_0_38_110
*1501 FILLER_0_38_116
*1502 FILLER_0_38_122
*1503 FILLER_0_38_128
*1504 FILLER_0_38_132
*1505 FILLER_0_38_137
*1506 FILLER_0_38_147
*1507 FILLER_0_38_15
*1508 FILLER_0_38_157
*1509 FILLER_0_38_167
*1510 FILLER_0_38_174
*1511 FILLER_0_38_194
*1512 FILLER_0_38_203
*1513 FILLER_0_38_215
*1514 FILLER_0_38_223
*1515 FILLER_0_38_232
*1516 FILLER_0_38_238
*1517 FILLER_0_38_247
*1518 FILLER_0_38_251
*1519 FILLER_0_38_253
*1520 FILLER_0_38_260
*1521 FILLER_0_38_27
*1522 FILLER_0_38_273
*1523 FILLER_0_38_279
*1524 FILLER_0_38_29
*1525 FILLER_0_38_3
*1526 FILLER_0_38_303
*1527 FILLER_0_38_319
*1528 FILLER_0_38_340
*1529 FILLER_0_38_348
*1530 FILLER_0_38_41
*1531 FILLER_0_38_53
*1532 FILLER_0_38_57
*1533 FILLER_0_38_68
*1534 FILLER_0_38_74
*1535 FILLER_0_38_80
*1536 FILLER_0_38_88
*1537 FILLER_0_38_92
*1538 FILLER_0_38_98
*1539 FILLER_0_3_105
*1540 FILLER_0_3_111
*1541 FILLER_0_3_113
*1542 FILLER_0_3_125
*1543 FILLER_0_3_137
*1544 FILLER_0_3_149
*1545 FILLER_0_3_15
*1546 FILLER_0_3_161
*1547 FILLER_0_3_167
*1548 FILLER_0_3_169
*1549 FILLER_0_3_181
*1550 FILLER_0_3_193
*1551 FILLER_0_3_205
*1552 FILLER_0_3_217
*1553 FILLER_0_3_223
*1554 FILLER_0_3_225
*1555 FILLER_0_3_237
*1556 FILLER_0_3_249
*1557 FILLER_0_3_261
*1558 FILLER_0_3_27
*1559 FILLER_0_3_273
*1560 FILLER_0_3_279
*1561 FILLER_0_3_281
*1562 FILLER_0_3_293
*1563 FILLER_0_3_3
*1564 FILLER_0_3_305
*1565 FILLER_0_3_317
*1566 FILLER_0_3_329
*1567 FILLER_0_3_335
*1568 FILLER_0_3_337
*1569 FILLER_0_3_349
*1570 FILLER_0_3_39
*1571 FILLER_0_3_51
*1572 FILLER_0_3_55
*1573 FILLER_0_3_57
*1574 FILLER_0_3_69
*1575 FILLER_0_3_81
*1576 FILLER_0_3_93
*1577 FILLER_0_4_109
*1578 FILLER_0_4_121
*1579 FILLER_0_4_133
*1580 FILLER_0_4_139
*1581 FILLER_0_4_141
*1582 FILLER_0_4_15
*1583 FILLER_0_4_153
*1584 FILLER_0_4_165
*1585 FILLER_0_4_177
*1586 FILLER_0_4_189
*1587 FILLER_0_4_195
*1588 FILLER_0_4_197
*1589 FILLER_0_4_209
*1590 FILLER_0_4_221
*1591 FILLER_0_4_233
*1592 FILLER_0_4_245
*1593 FILLER_0_4_251
*1594 FILLER_0_4_253
*1595 FILLER_0_4_265
*1596 FILLER_0_4_27
*1597 FILLER_0_4_277