*SPEF "ieee 1481-1999"
*DESIGN "tt_um_thermocouple"
*DATE "11:11:11 Fri 11 11, 1111"
*VENDOR "OpenRCX"
*PROGRAM "Parallel Extraction"
*VERSION "1.0"
*DESIGN_FLOW "NAME_SCOPE LOCAL" "PIN_CAP NONE"
*DIVIDER /
*DELIMITER :
*BUS_DELIMITER []
*T_UNIT 1 NS
*C_UNIT 1 PF
*R_UNIT 1 OHM
*L_UNIT 1 HENRY

*NAME_MAP
*3 clk
*4 ena
*5 rst_n
*6 ui_in[0]
*7 ui_in[1]
*8 ui_in[2]
*9 ui_in[3]
*10 ui_in[4]
*11 ui_in[5]
*12 ui_in[6]
*13 ui_in[7]
*14 uio_in[0]
*15 uio_in[1]
*16 uio_in[2]
*17 uio_in[3]
*18 uio_in[4]
*19 uio_in[5]
*20 uio_in[6]
*21 uio_in[7]
*22 net8
*23 net9
*24 net24
*25 net10
*26 net25
*27 net26
*28 net11
*29 net27
*30 net12
*31 net13
*32 uio_out[2]
*33 net14
*34 uio_out[4]
*35 uio_out[5]
*36 net15
*37 uio_out[7]
*38 net16
*39 net17
*40 net18
*41 net19
*42 net20
*43 net21
*44 net22
*45 net23
*46 _0000_
*47 _0001_
*48 _0002_
*49 _0003_
*50 _0004_
*51 _0005_
*52 _0006_
*53 _0007_
*54 _0008_
*55 _0009_
*56 _0010_
*57 _0011_
*58 _0012_
*59 _0013_
*60 _0014_
*61 _0015_
*62 _0016_
*63 _0017_
*64 _0018_
*65 _0019_
*66 _0020_
*67 _0021_
*68 _0022_
*69 _0023_
*70 _0024_
*71 _0025_
*72 _0026_
*73 _0027_
*74 _0028_
*75 _0029_
*76 _0030_
*77 _0031_
*78 _0032_
*79 _0033_
*80 _0034_
*81 _0035_
*82 _0036_
*83 _0037_
*84 _0038_
*85 _0039_
*86 _0040_
*87 _0041_
*88 _0042_
*89 _0043_
*90 _0044_
*91 _0045_
*92 _0046_
*93 _0047_
*94 _0048_
*95 _0049_
*96 _0050_
*97 _0051_
*98 _0052_
*99 _0053_
*100 _0054_
*101 _0055_
*102 _0056_
*103 _0057_
*104 _0058_
*105 _0059_
*106 _0060_
*107 _0061_
*108 _0062_
*109 _0063_
*110 _0064_
*111 _0065_
*112 _0066_
*113 _0067_
*114 _0068_
*115 _0069_
*116 _0070_
*117 _0071_
*118 _0072_
*119 _0073_
*120 _0074_
*121 _0075_
*122 _0076_
*123 _0077_
*124 _0078_
*125 _0079_
*126 _0080_
*127 _0081_
*128 _0082_
*129 _0083_
*130 _0084_
*131 _0085_
*132 _0086_
*133 _0087_
*134 _0088_
*135 _0089_
*136 _0090_
*137 _0091_
*138 _0092_
*139 _0093_
*140 _0094_
*141 _0095_
*142 _0096_
*143 _0097_
*144 _0098_
*145 _0099_
*146 _0100_
*147 _0101_
*148 _0102_
*149 _0103_
*150 _0104_
*151 _0105_
*152 _0106_
*153 _0107_
*154 _0108_
*155 _0109_
*156 _0110_
*157 _0111_
*158 _0112_
*159 _0113_
*160 _0114_
*161 _0115_
*162 _0116_
*163 _0117_
*164 _0118_
*165 _0119_
*166 _0120_
*167 _0121_
*168 _0122_
*169 _0123_
*170 _0124_
*171 _0125_
*172 _0126_
*173 _0127_
*174 _0128_
*175 _0129_
*176 _0130_
*177 _0131_
*178 _0132_
*179 _0133_
*180 _0134_
*181 _0135_
*182 _0136_
*183 _0137_
*184 _0138_
*185 _0139_
*186 _0140_
*187 _0141_
*188 _0142_
*189 _0143_
*190 _0144_
*191 _0145_
*192 _0146_
*193 _0147_
*194 _0148_
*195 _0149_
*196 _0150_
*197 _0151_
*198 _0152_
*199 _0153_
*200 _0154_
*201 _0155_
*202 _0156_
*203 _0157_
*204 _0158_
*205 _0159_
*206 _0160_
*207 _0161_
*208 _0162_
*209 _0163_
*210 _0164_
*211 _0165_
*212 _0166_
*213 _0167_
*214 _0168_
*215 _0169_
*216 _0170_
*217 _0171_
*218 _0172_
*219 _0173_
*220 _0174_
*221 _0175_
*222 _0176_
*223 _0177_
*224 _0178_
*225 _0179_
*226 _0180_
*227 _0181_
*228 _0182_
*229 _0183_
*230 _0184_
*231 _0185_
*232 _0186_
*233 _0187_
*234 _0188_
*235 _0189_
*236 _0190_
*237 _0191_
*238 _0192_
*239 _0193_
*240 _0194_
*241 _0195_
*242 _0196_
*243 _0197_
*244 _0198_
*245 _0199_
*246 _0200_
*247 _0201_
*248 _0202_
*249 _0203_
*250 _0204_
*251 _0205_
*252 _0206_
*253 _0207_
*254 _0208_
*255 _0209_
*256 _0210_
*257 _0211_
*258 _0212_
*259 _0213_
*260 _0214_
*261 _0215_
*262 _0216_
*263 _0217_
*264 _0218_
*265 _0219_
*266 _0220_
*267 _0221_
*268 _0222_
*269 _0223_
*270 _0224_
*271 _0225_
*272 _0226_
*273 _0227_
*274 _0228_
*275 _0229_
*276 _0230_
*277 _0231_
*278 _0232_
*279 _0233_
*280 _0234_
*281 _0235_
*282 _0236_
*283 _0237_
*284 _0238_
*285 _0239_
*286 _0240_
*287 _0241_
*288 _0242_
*289 _0243_
*290 _0244_
*291 _0245_
*292 _0246_
*293 _0247_
*294 _0248_
*295 _0249_
*296 _0250_
*297 _0251_
*298 _0252_
*299 _0253_
*300 _0254_
*301 _0255_
*302 _0256_
*303 _0257_
*304 _0258_
*305 _0259_
*306 _0260_
*307 _0261_
*308 _0262_
*309 _0263_
*310 _0264_
*311 _0265_
*312 _0266_
*313 _0267_
*314 _0268_
*315 _0269_
*316 _0270_
*317 _0271_
*318 _0272_
*319 _0273_
*320 _0274_
*321 _0275_
*322 _0276_
*323 _0277_
*324 _0278_
*325 _0279_
*326 _0280_
*327 _0281_
*328 _0282_
*329 _0283_
*330 _0284_
*331 _0285_
*332 _0286_
*333 _0287_
*334 _0288_
*335 _0289_
*336 _0290_
*337 _0291_
*338 _0292_
*339 _0293_
*340 _0294_
*341 _0295_
*342 _0296_
*343 _0297_
*344 _0298_
*345 _0299_
*346 _0300_
*347 _0301_
*348 _0302_
*349 _0303_
*350 _0304_
*351 _0305_
*352 _0306_
*353 _0307_
*354 _0308_
*355 _0309_
*356 _0310_
*357 _0311_
*358 _0312_
*359 _0313_
*360 _0314_
*361 _0315_
*362 _0316_
*363 _0317_
*364 _0318_
*365 _0319_
*366 _0320_
*367 _0321_
*368 _0322_
*369 _0323_
*370 _0324_
*371 _0325_
*372 _0326_
*373 _0327_
*374 _0328_
*375 _0329_
*376 _0330_
*377 _0331_
*378 _0332_
*379 _0333_
*380 _0334_
*381 _0335_
*382 _0336_
*383 _0337_
*384 _0338_
*385 _0339_
*386 _0340_
*387 _0341_
*388 _0342_
*389 _0343_
*390 _0344_
*391 _0345_
*392 _0346_
*393 _0347_
*394 _0348_
*395 _0349_
*396 _0350_
*397 _0351_
*398 _0352_
*399 _0353_
*400 _0354_
*401 _0355_
*402 _0356_
*403 _0357_
*404 _0358_
*405 _0359_
*406 _0360_
*407 _0361_
*408 _0362_
*409 _0363_
*410 _0364_
*411 _0365_
*412 _0366_
*413 _0367_
*414 _0368_
*415 _0369_
*416 _0370_
*417 _0371_
*418 _0372_
*419 _0373_
*420 _0374_
*421 _0375_
*422 _0376_
*423 _0377_
*424 _0378_
*425 _0379_
*426 _0380_
*427 _0381_
*428 _0382_
*429 _0383_
*430 _0384_
*431 _0385_
*432 _0386_
*433 _0387_
*434 _0388_
*435 _0389_
*436 _0390_
*437 _0391_
*438 _0392_
*439 _0393_
*440 _0394_
*441 _0395_
*442 _0396_
*443 _0397_
*444 _0398_
*445 _0399_
*446 _0400_
*447 _0401_
*448 _0402_
*449 _0403_
*450 _0404_
*451 _0405_
*452 _0406_
*453 _0407_
*454 _0408_
*455 _0409_
*456 _0410_
*457 _0411_
*458 _0412_
*459 _0413_
*460 _0414_
*461 _0415_
*462 _0416_
*463 _0417_
*464 _0418_
*465 _0419_
*466 _0420_
*467 _0421_
*468 _0422_
*469 _0423_
*470 _0424_
*471 _0425_
*472 _0426_
*473 _0427_
*474 _0428_
*475 _0429_
*476 _0430_
*477 _0431_
*478 _0432_
*479 _0433_
*480 _0434_
*481 _0435_
*482 _0436_
*483 _0437_
*484 _0438_
*485 _0439_
*486 _0440_
*487 _0441_
*488 _0442_
*489 _0443_
*490 _0444_
*491 _0445_
*492 _0446_
*493 _0447_
*494 _0448_
*495 _0449_
*496 _0450_
*497 _0451_
*498 _0452_
*499 _0453_
*500 _0454_
*501 _0455_
*502 _0456_
*503 _0457_
*504 _0458_
*505 _0459_
*506 _0460_
*507 _0461_
*508 _0462_
*509 _0463_
*510 _0464_
*511 _0465_
*512 _0466_
*513 _0467_
*514 _0468_
*515 _0469_
*516 _0470_
*517 _0471_
*518 _0472_
*519 _0473_
*520 _0474_
*521 _0475_
*522 _0476_
*523 _0477_
*524 _0478_
*525 _0479_
*526 _0480_
*527 _0481_
*528 _0482_
*529 _0483_
*530 _0484_
*531 _0485_
*532 _0486_
*533 _0487_
*534 _0488_
*535 _0489_
*536 _0490_
*537 _0491_
*538 _0492_
*539 _0493_
*540 _0494_
*541 _0495_
*542 _0496_
*543 _0497_
*544 _0498_
*545 _0499_
*546 _0500_
*547 _0501_
*548 _0502_
*549 _0503_
*550 _0504_
*551 _0505_
*552 _0506_
*553 _0507_
*554 _0508_
*555 _0509_
*556 _0510_
*557 _0511_
*558 _0512_
*559 _0513_
*560 _0514_
*561 _0515_
*562 _0516_
*563 _0517_
*564 _0518_
*565 _0519_
*566 _0520_
*567 _0521_
*568 _0522_
*569 _0523_
*570 _0524_
*571 _0525_
*572 _0526_
*573 _0527_
*574 _0528_
*575 _0529_
*576 _0530_
*577 _0531_
*578 _0532_
*579 _0533_
*580 _0534_
*581 _0535_
*582 _0536_
*583 _0537_
*584 _0538_
*585 _0539_
*586 _0540_
*587 _0541_
*588 _0542_
*589 _0543_
*590 _0544_
*591 _0545_
*592 _0546_
*593 _0547_
*594 _0548_
*595 _0549_
*596 _0550_
*597 _0551_
*598 _0552_
*599 _0553_
*600 _0554_
*601 _0555_
*602 _0556_
*603 _0557_
*604 _0558_
*605 _0559_
*606 _0560_
*607 _0561_
*608 _0562_
*609 _0563_
*610 _0564_
*611 _0565_
*612 _0566_
*613 _0567_
*614 _0568_
*615 _0569_
*616 _0570_
*617 _0571_
*618 _0572_
*619 _0573_
*620 _0574_
*621 _0575_
*622 _0576_
*623 _0577_
*624 _0578_
*625 _0579_
*626 _0580_
*627 _0581_
*628 _0582_
*629 _0583_
*630 _0584_
*631 _0585_
*632 _0586_
*633 _0587_
*634 _0588_
*635 _0589_
*636 _0590_
*637 _0591_
*638 _0592_
*639 _0593_
*640 _0594_
*641 _0595_
*642 _0596_
*643 _0597_
*644 _0598_
*645 _0599_
*646 _0600_
*647 _0601_
*648 _0602_
*649 _0603_
*650 _0604_
*651 _0605_
*652 _0606_
*653 _0607_
*654 _0608_
*655 _0609_
*656 _0610_
*657 _0611_
*658 _0612_
*659 _0613_
*660 _0614_
*661 _0615_
*662 _0616_
*663 _0617_
*664 _0618_
*665 _0619_
*666 _0620_
*667 _0621_
*668 _0622_
*669 _0623_
*670 _0624_
*671 _0625_
*672 _0626_
*673 _0627_
*674 _0628_
*675 _0629_
*676 _0630_
*677 _0631_
*678 _0632_
*679 _0633_
*680 _0634_
*681 _0635_
*682 _0636_
*683 _0637_
*684 _0638_
*685 _0639_
*686 _0640_
*687 _0641_
*688 _0642_
*689 _0643_
*690 _0644_
*691 _0645_
*692 _0646_
*693 _0647_
*694 _0648_
*695 _0649_
*696 _0650_
*697 _0651_
*698 _0652_
*699 _0653_
*700 _0654_
*701 _0655_
*702 _0656_
*703 _0657_
*704 _0658_
*705 _0659_
*706 _0660_
*707 _0661_
*708 _0662_
*709 _0663_
*710 _0664_
*711 _0665_
*712 _0666_
*713 _0667_
*714 _0668_
*715 _0669_
*716 _0670_
*717 _0671_
*718 _0672_
*719 _0673_
*720 _0674_
*721 _0675_
*722 _0676_
*723 _0677_
*724 _0678_
*725 _0679_
*726 _0680_
*727 _0681_
*728 _0682_
*729 _0683_
*730 _0684_
*731 _0685_
*732 _0686_
*733 _0687_
*734 _0688_
*735 _0689_
*736 _0690_
*737 _0691_
*738 _0692_
*739 _0693_
*740 _0694_
*741 _0695_
*742 _0696_
*743 _0697_
*744 _0698_
*745 _0699_
*746 _0700_
*747 _0701_
*748 _0702_
*749 _0703_
*750 _0704_
*751 _0705_
*752 _0706_
*753 _0707_
*754 _0708_
*755 _0709_
*756 _0710_
*757 _0711_
*758 _0712_
*759 _0713_
*760 _0714_
*761 _0715_
*762 _0716_
*763 _0717_
*764 _0718_
*765 _0719_
*766 _0720_
*767 _0721_
*768 _0722_
*769 _0723_
*770 _0724_
*771 _0725_
*772 _0726_
*773 _0727_
*774 _0728_
*775 _0729_
*776 _0730_
*777 _0731_
*778 _0732_
*779 _0733_
*780 _0734_
*781 _0735_
*782 _0736_
*783 _0737_
*784 _0738_
*785 _0739_
*786 _0740_
*787 _0741_
*788 _0742_
*789 _0743_
*790 _0744_
*791 _0745_
*792 _0746_
*793 _0747_
*794 _0748_
*795 _0749_
*796 _0750_
*797 _0751_
*798 _0752_
*799 _0753_
*800 _0754_
*801 _0755_
*802 _0756_
*803 _0757_
*804 _0758_
*805 _0759_
*806 _0760_
*807 _0761_
*808 _0762_
*809 _0763_
*810 _0764_
*811 _0765_
*812 _0766_
*813 _0767_
*814 _0768_
*815 _0769_
*816 _0770_
*817 _0771_
*818 cfg_adc_passthrough
*819 clknet_0_clk
*820 clknet_4_0_0_clk
*821 clknet_4_10_0_clk
*822 clknet_4_11_0_clk
*823 clknet_4_12_0_clk
*824 clknet_4_13_0_clk
*825 clknet_4_14_0_clk
*826 clknet_4_15_0_clk
*827 clknet_4_1_0_clk
*828 clknet_4_2_0_clk
*829 clknet_4_3_0_clk
*830 clknet_4_4_0_clk
*831 clknet_4_5_0_clk
*832 clknet_4_6_0_clk
*833 clknet_4_7_0_clk
*834 clknet_4_8_0_clk
*835 clknet_4_9_0_clk
*836 net1
*837 net100
*838 net101
*839 net102
*840 net103
*841 net104
*842 net105
*843 net106
*844 net107
*845 net108
*846 net109
*847 net110
*848 net111
*849 net112
*850 net113
*851 net114
*852 net115
*853 net116
*854 net117
*855 net118
*856 net119
*857 net120
*858 net121
*859 net122
*860 net123
*861 net124
*862 net125
*863 net126
*864 net127
*865 net128
*866 net129
*867 net130
*868 net131
*869 net132
*870 net133
*871 net134
*872 net2
*873 net28
*874 net29
*875 net3
*876 net30
*877 net31
*878 net32
*879 net33
*880 net34
*881 net35
*882 net36
*883 net37
*884 net38
*885 net39
*886 net4
*887 net40
*888 net41
*889 net42
*890 net43
*891 net44
*892 net45
*893 net46
*894 net47
*895 net48
*896 net49
*897 net5
*898 net50
*899 net51
*900 net52
*901 net53
*902 net54
*903 net55
*904 net56
*905 net57
*906 net58
*907 net59
*908 net6
*909 net60
*910 net61
*911 net62
*912 net63
*913 net64
*914 net65
*915 net66
*916 net67
*917 net68
*918 net69
*919 net7
*920 net70
*921 net71
*922 net72
*923 net73
*924 net74
*925 net75
*926 net76
*927 net77
*928 net78
*929 net79
*930 net80
*931 net81
*932 net82
*933 net83
*934 net84
*935 net85
*936 net86
*937 net87
*938 net88
*939 net89
*940 net90
*941 net91
*942 net92
*943 net93
*944 net94
*945 net95
*946 net96
*947 net97
*948 net98
*949 net99
*950 spi_master\.cnt\[0\]
*951 spi_master\.cnt\[10\]
*952 spi_master\.cnt\[11\]
*953 spi_master\.cnt\[12\]
*954 spi_master\.cnt\[13\]
*955 spi_master\.cnt\[14\]
*956 spi_master\.cnt\[15\]
*957 spi_master\.cnt\[16\]
*958 spi_master\.cnt\[17\]
*959 spi_master\.cnt\[18\]
*960 spi_master\.cnt\[19\]
*961 spi_master\.cnt\[1\]
*962 spi_master\.cnt\[20\]
*963 spi_master\.cnt\[21\]
*964 spi_master\.cnt\[22\]
*965 spi_master\.cnt\[23\]
*966 spi_master\.cnt\[24\]
*967 spi_master\.cnt\[25\]
*968 spi_master\.cnt\[26\]
*969 spi_master\.cnt\[27\]
*970 spi_master\.cnt\[28\]
*971 spi_master\.cnt\[29\]
*972 spi_master\.cnt\[2\]
*973 spi_master\.cnt\[30\]
*974 spi_master\.cnt\[31\]
*975 spi_master\.cnt\[3\]
*976 spi_master\.cnt\[4\]
*977 spi_master\.cnt\[5\]
*978 spi_master\.cnt\[6\]
*979 spi_master\.cnt\[7\]
*980 spi_master\.cnt\[8\]
*981 spi_master\.cnt\[9\]
*982 spi_master\.i_ena
*983 spi_master\.o_sck
*984 spi_master\.o_wout\[0\]
*985 spi_master\.o_wout\[1\]
*986 spi_master\.o_wout\[2\]
*987 spi_master\.o_wout\[3\]
*988 spi_master\.o_wout\[4\]
*989 spi_master\.o_wout\[5\]
*990 spi_master\.o_wout\[6\]
*991 spi_master\.o_wout\[7\]
*992 spi_master\.o_wout\[8\]
*993 spi_master\.o_wout\[9\]
*994 spi_master\.o_wstb
*995 spi_master\.running
*996 spi_slave\.cnt\[0\]
*997 spi_slave\.cnt\[1\]
*998 spi_slave\.cnt\[2\]
*999 spi_slave\.cnt\[3\]
*1000 spi_slave\.i_win\[0\]
*1001 spi_slave\.i_win\[10\]
*1002 spi_slave\.i_win\[11\]
*1003 spi_slave\.i_win\[12\]
*1004 spi_slave\.i_win\[13\]
*1005 spi_slave\.i_win\[14\]
*1006 spi_slave\.i_win\[15\]
*1007 spi_slave\.i_win\[1\]
*1008 spi_slave\.i_win\[2\]
*1009 spi_slave\.i_win\[3\]
*1010 spi_slave\.i_win\[4\]
*1011 spi_slave\.i_win\[5\]
*1012 spi_slave\.i_win\[6\]
*1013 spi_slave\.i_win\[7\]
*1014 spi_slave\.i_win\[8\]
*1015 spi_slave\.i_win\[9\]
*1016 spi_slave\.o_wout\[0\]
*1017 spi_slave\.o_wout\[10\]
*1018 spi_slave\.o_wout\[11\]
*1019 spi_slave\.o_wout\[12\]
*1020 spi_slave\.o_wout\[13\]
*1021 spi_slave\.o_wout\[14\]
*1022 spi_slave\.o_wout\[15\]
*1023 spi_slave\.o_wout\[1\]
*1024 spi_slave\.o_wout\[2\]
*1025 spi_slave\.o_wout\[3\]
*1026 spi_slave\.o_wout\[4\]
*1027 spi_slave\.o_wout\[5\]
*1028 spi_slave\.o_wout\[6\]
*1029 spi_slave\.o_wout\[7\]
*1030 spi_slave\.o_wout\[8\]
*1031 spi_slave\.o_wout\[9\]
*1032 spi_slave\.sce
*1033 spi_slave\.sce_sync\[0\]
*1034 spi_slave\.sck_sync\[0\]
*1035 spi_slave\.sck_sync\[1\]
*1036 spi_slave\.sck_sync\[2\]
*1037 state
*1038 tc_calc\.active_intercept\[0\]
*1039 tc_calc\.active_intercept\[10\]
*1040 tc_calc\.active_intercept\[11\]
*1041 tc_calc\.active_intercept\[13\]
*1042 tc_calc\.active_intercept\[15\]
*1043 tc_calc\.active_intercept\[16\]
*1044 tc_calc\.active_intercept\[1\]
*1045 tc_calc\.active_intercept\[2\]
*1046 tc_calc\.active_intercept\[5\]
*1047 tc_calc\.active_intercept\[6\]
*1048 tc_calc\.active_intercept\[7\]
*1049 tc_calc\.active_intercept\[8\]
*1050 tc_calc\.active_intercept\[9\]
*1051 tc_calc\.active_slope\[0\]
*1052 tc_calc\.active_slope\[1\]
*1053 tc_calc\.active_slope\[2\]
*1054 tc_calc\.active_slope\[3\]
*1055 tc_calc\.active_slope\[5\]
*1056 tc_calc\.active_slope\[7\]
*1057 tc_calc\.cs\[0\]
*1058 tc_calc\.cs\[1\]
*1059 tc_calc\.cv\[0\]
*1060 tc_calc\.cv\[1\]
*1061 tc_calc\.cv\[2\]
*1062 tc_calc\.cv\[3\]
*1063 tc_calc\.cv\[4\]
*1064 tc_calc\.cv\[5\]
*1065 tc_calc\.cv\[6\]
*1066 tc_calc\.cv\[7\]
*1067 tc_calc\.i_type
*1068 tc_calc\.o_done
*1069 tc_calc\.state\[0\]
*1070 tc_calc\.state\[1\]
*1071 tc_calc\.state\[2\]
*1072 FILLER_0_0_102
*1073 FILLER_0_0_107
*1074 FILLER_0_0_111
*1075 FILLER_0_0_113
*1076 FILLER_0_0_125
*1077 FILLER_0_0_137
*1078 FILLER_0_0_148
*1079 FILLER_0_0_15
*1080 FILLER_0_0_160
*1081 FILLER_0_0_169
*1082 FILLER_0_0_181
*1083 FILLER_0_0_193
*1084 FILLER_0_0_197
*1085 FILLER_0_0_220
*1086 FILLER_0_0_225
*1087 FILLER_0_0_237
*1088 FILLER_0_0_249
*1089 FILLER_0_0_253
*1090 FILLER_0_0_265
*1091 FILLER_0_0_27
*1092 FILLER_0_0_277
*1093 FILLER_0_0_281
*1094 FILLER_0_0_29
*1095 FILLER_0_0_293
*1096 FILLER_0_0_3
*1097 FILLER_0_0_305
*1098 FILLER_0_0_309
*1099 FILLER_0_0_321
*1100 FILLER_0_0_333
*1101 FILLER_0_0_337
*1102 FILLER_0_0_349
*1103 FILLER_0_0_41
*1104 FILLER_0_0_53
*1105 FILLER_0_0_57
*1106 FILLER_0_0_69
*1107 FILLER_0_0_81
*1108 FILLER_0_0_85
*1109 FILLER_0_0_91
*1110 FILLER_0_0_98
*1111 FILLER_0_10_104
*1112 FILLER_0_10_109
*1113 FILLER_0_10_130
*1114 FILLER_0_10_138
*1115 FILLER_0_10_141
*1116 FILLER_0_10_145
*1117 FILLER_0_10_15
*1118 FILLER_0_10_151
*1119 FILLER_0_10_163
*1120 FILLER_0_10_175
*1121 FILLER_0_10_185
*1122 FILLER_0_10_193
*1123 FILLER_0_10_197
*1124 FILLER_0_10_209
*1125 FILLER_0_10_215
*1126 FILLER_0_10_227
*1127 FILLER_0_10_239
*1128 FILLER_0_10_251
*1129 FILLER_0_10_253
*1130 FILLER_0_10_269
*1131 FILLER_0_10_27
*1132 FILLER_0_10_281
*1133 FILLER_0_10_29
*1134 FILLER_0_10_3
*1135 FILLER_0_10_305
*1136 FILLER_0_10_309
*1137 FILLER_0_10_317
*1138 FILLER_0_10_324
*1139 FILLER_0_10_346
*1140 FILLER_0_10_350
*1141 FILLER_0_10_44
*1142 FILLER_0_10_56
*1143 FILLER_0_10_68
*1144 FILLER_0_10_85
*1145 FILLER_0_11_111
*1146 FILLER_0_11_113
*1147 FILLER_0_11_125
*1148 FILLER_0_11_129
*1149 FILLER_0_11_136
*1150 FILLER_0_11_15
*1151 FILLER_0_11_161
*1152 FILLER_0_11_167
*1153 FILLER_0_11_169
*1154 FILLER_0_11_188
*1155 FILLER_0_11_201
*1156 FILLER_0_11_212
*1157 FILLER_0_11_240
*1158 FILLER_0_11_248
*1159 FILLER_0_11_254
*1160 FILLER_0_11_259
*1161 FILLER_0_11_27
*1162 FILLER_0_11_271
*1163 FILLER_0_11_279
*1164 FILLER_0_11_281
*1165 FILLER_0_11_293
*1166 FILLER_0_11_297
*1167 FILLER_0_11_3
*1168 FILLER_0_11_335
*1169 FILLER_0_11_337
*1170 FILLER_0_11_346
*1171 FILLER_0_11_350
*1172 FILLER_0_11_45
*1173 FILLER_0_11_54
*1174 FILLER_0_11_62
*1175 FILLER_0_11_74
*1176 FILLER_0_11_99
*1177 FILLER_0_12_107
*1178 FILLER_0_12_119
*1179 FILLER_0_12_141
*1180 FILLER_0_12_15
*1181 FILLER_0_12_160
*1182 FILLER_0_12_166
*1183 FILLER_0_12_172
*1184 FILLER_0_12_181
*1185 FILLER_0_12_190
*1186 FILLER_0_12_244
*1187 FILLER_0_12_253
*1188 FILLER_0_12_27
*1189 FILLER_0_12_272
*1190 FILLER_0_12_284
*1191 FILLER_0_12_3
*1192 FILLER_0_12_305
*1193 FILLER_0_12_309
*1194 FILLER_0_12_326
*1195 FILLER_0_12_346
*1196 FILLER_0_12_350
*1197 FILLER_0_12_46
*1198 FILLER_0_12_64
*1199 FILLER_0_12_76
*1200 FILLER_0_12_95
*1201 FILLER_0_13_103
*1202 FILLER_0_13_111
*1203 FILLER_0_13_117
*1204 FILLER_0_13_126
*1205 FILLER_0_13_15
*1206 FILLER_0_13_162
*1207 FILLER_0_13_189
*1208 FILLER_0_13_201
*1209 FILLER_0_13_205
*1210 FILLER_0_13_225
*1211 FILLER_0_13_245
*1212 FILLER_0_13_253
*1213 FILLER_0_13_263
*1214 FILLER_0_13_27
*1215 FILLER_0_13_276
*1216 FILLER_0_13_281
*1217 FILLER_0_13_3
*1218 FILLER_0_13_308
*1219 FILLER_0_13_346
*1220 FILLER_0_13_350
*1221 FILLER_0_13_39
*1222 FILLER_0_13_47
*1223 FILLER_0_13_57
*1224 FILLER_0_13_69
*1225 FILLER_0_13_81
*1226 FILLER_0_13_93
*1227 FILLER_0_14_102
*1228 FILLER_0_14_106
*1229 FILLER_0_14_129
*1230 FILLER_0_14_138
*1231 FILLER_0_14_15
*1232 FILLER_0_14_152
*1233 FILLER_0_14_164
*1234 FILLER_0_14_168
*1235 FILLER_0_14_177
*1236 FILLER_0_14_195
*1237 FILLER_0_14_197
*1238 FILLER_0_14_205
*1239 FILLER_0_14_212
*1240 FILLER_0_14_246
*1241 FILLER_0_14_253
*1242 FILLER_0_14_261
*1243 FILLER_0_14_27
*1244 FILLER_0_14_274
*1245 FILLER_0_14_284
*1246 FILLER_0_14_29
*1247 FILLER_0_14_296
*1248 FILLER_0_14_3
*1249 FILLER_0_14_309
*1250 FILLER_0_14_326
*1251 FILLER_0_14_337
*1252 FILLER_0_14_349
*1253 FILLER_0_14_46
*1254 FILLER_0_14_57
*1255 FILLER_0_14_63
*1256 FILLER_0_14_81
*1257 FILLER_0_15_109
*1258 FILLER_0_15_113
*1259 FILLER_0_15_120
*1260 FILLER_0_15_131
*1261 FILLER_0_15_135
*1262 FILLER_0_15_15
*1263 FILLER_0_15_153
*1264 FILLER_0_15_165
*1265 FILLER_0_15_172
*1266 FILLER_0_15_181
*1267 FILLER_0_15_185
*1268 FILLER_0_15_202
*1269 FILLER_0_15_214
*1270 FILLER_0_15_222
*1271 FILLER_0_15_225
*1272 FILLER_0_15_238
*1273 FILLER_0_15_253
*1274 FILLER_0_15_265
*1275 FILLER_0_15_27
*1276 FILLER_0_15_275
*1277 FILLER_0_15_290
*1278 FILLER_0_15_3
*1279 FILLER_0_15_302
*1280 FILLER_0_15_308
*1281 FILLER_0_15_316
*1282 FILLER_0_15_320
*1283 FILLER_0_15_335
*1284 FILLER_0_15_337
*1285 FILLER_0_15_349
*1286 FILLER_0_15_39
*1287 FILLER_0_15_51
*1288 FILLER_0_15_55
*1289 FILLER_0_15_57
*1290 FILLER_0_16_109
*1291 FILLER_0_16_118
*1292 FILLER_0_16_130
*1293 FILLER_0_16_138
*1294 FILLER_0_16_15
*1295 FILLER_0_16_152
*1296 FILLER_0_16_164
*1297 FILLER_0_16_168
*1298 FILLER_0_16_175
*1299 FILLER_0_16_181
*1300 FILLER_0_16_188
*1301 FILLER_0_16_202
*1302 FILLER_0_16_221
*1303 FILLER_0_16_229
*1304 FILLER_0_16_246
*1305 FILLER_0_16_253
*1306 FILLER_0_16_265
*1307 FILLER_0_16_27
*1308 FILLER_0_16_29
*1309 FILLER_0_16_3
*1310 FILLER_0_16_306
*1311 FILLER_0_16_309
*1312 FILLER_0_16_345
*1313 FILLER_0_16_41
*1314 FILLER_0_16_53
*1315 FILLER_0_16_61
*1316 FILLER_0_16_65
*1317 FILLER_0_16_82
*1318 FILLER_0_16_85
*1319 FILLER_0_16_97
*1320 FILLER_0_17_109
*1321 FILLER_0_17_123
*1322 FILLER_0_17_15
*1323 FILLER_0_17_158
*1324 FILLER_0_17_166
*1325 FILLER_0_17_178
*1326 FILLER_0_17_195
*1327 FILLER_0_17_219
*1328 FILLER_0_17_223
*1329 FILLER_0_17_225
*1330 FILLER_0_17_233
*1331 FILLER_0_17_258
*1332 FILLER_0_17_263
*1333 FILLER_0_17_27
*1334 FILLER_0_17_275
*1335 FILLER_0_17_279
*1336 FILLER_0_17_281
*1337 FILLER_0_17_293
*1338 FILLER_0_17_3
*1339 FILLER_0_17_301
*1340 FILLER_0_17_334
*1341 FILLER_0_17_346
*1342 FILLER_0_17_350
*1343 FILLER_0_17_39
*1344 FILLER_0_17_51
*1345 FILLER_0_17_55
*1346 FILLER_0_17_78
*1347 FILLER_0_17_92
*1348 FILLER_0_17_97
*1349 FILLER_0_18_108
*1350 FILLER_0_18_15
*1351 FILLER_0_18_156
*1352 FILLER_0_18_184
*1353 FILLER_0_18_192
*1354 FILLER_0_18_204
*1355 FILLER_0_18_211
*1356 FILLER_0_18_223
*1357 FILLER_0_18_238
*1358 FILLER_0_18_250
*1359 FILLER_0_18_253
*1360 FILLER_0_18_265
*1361 FILLER_0_18_27
*1362 FILLER_0_18_277
*1363 FILLER_0_18_287
*1364 FILLER_0_18_29
*1365 FILLER_0_18_299
*1366 FILLER_0_18_3
*1367 FILLER_0_18_307
*1368 FILLER_0_18_309
*1369 FILLER_0_18_321
*1370 FILLER_0_18_338
*1371 FILLER_0_18_350
*1372 FILLER_0_18_41
*1373 FILLER_0_18_49
*1374 FILLER_0_18_83
*1375 FILLER_0_18_89
*1376 FILLER_0_18_97
*1377 FILLER_0_19_113
*1378 FILLER_0_19_125
*1379 FILLER_0_19_131
*1380 FILLER_0_19_135
*1381 FILLER_0_19_148
*1382 FILLER_0_19_15
*1383 FILLER_0_19_160
*1384 FILLER_0_19_169
*1385 FILLER_0_19_177
*1386 FILLER_0_19_189
*1387 FILLER_0_19_201
*1388 FILLER_0_19_213
*1389 FILLER_0_19_221
*1390 FILLER_0_19_225
*1391 FILLER_0_19_237
*1392 FILLER_0_19_243
*1393 FILLER_0_19_27
*1394 FILLER_0_19_273
*1395 FILLER_0_19_279
*1396 FILLER_0_19_281
*1397 FILLER_0_19_3
*1398 FILLER_0_19_301
*1399 FILLER_0_19_313
*1400 FILLER_0_19_325
*1401 FILLER_0_19_333
*1402 FILLER_0_19_337
*1403 FILLER_0_19_349
*1404 FILLER_0_19_39
*1405 FILLER_0_19_51
*1406 FILLER_0_19_55
*1407 FILLER_0_19_85
*1408 FILLER_0_1_113
*1409 FILLER_0_1_125
*1410 FILLER_0_1_15
*1411 FILLER_0_1_160
*1412 FILLER_0_1_169
*1413 FILLER_0_1_185
*1414 FILLER_0_1_197
*1415 FILLER_0_1_232
*1416 FILLER_0_1_240
*1417 FILLER_0_1_27
*1418 FILLER_0_1_273
*1419 FILLER_0_1_279
*1420 FILLER_0_1_291
*1421 FILLER_0_1_3
*1422 FILLER_0_1_303
*1423 FILLER_0_1_315
*1424 FILLER_0_1_327
*1425 FILLER_0_1_335
*1426 FILLER_0_1_337
*1427 FILLER_0_1_349
*1428 FILLER_0_1_39
*1429 FILLER_0_1_51
*1430 FILLER_0_1_55
*1431 FILLER_0_1_57
*1432 FILLER_0_1_64
*1433 FILLER_0_1_68
*1434 FILLER_0_1_75
*1435 FILLER_0_1_87
*1436 FILLER_0_20_118
*1437 FILLER_0_20_130
*1438 FILLER_0_20_138
*1439 FILLER_0_20_15
*1440 FILLER_0_20_159
*1441 FILLER_0_20_167
*1442 FILLER_0_20_178
*1443 FILLER_0_20_190
*1444 FILLER_0_20_195
*1445 FILLER_0_20_197
*1446 FILLER_0_20_205
*1447 FILLER_0_20_21
*1448 FILLER_0_20_221
*1449 FILLER_0_20_235
*1450 FILLER_0_20_240
*1451 FILLER_0_20_245
*1452 FILLER_0_20_25
*1453 FILLER_0_20_251
*1454 FILLER_0_20_262
*1455 FILLER_0_20_287
*1456 FILLER_0_20_295
*1457 FILLER_0_20_3
*1458 FILLER_0_20_303
*1459 FILLER_0_20_307
*1460 FILLER_0_20_317
*1461 FILLER_0_20_323
*1462 FILLER_0_20_341
*1463 FILLER_0_20_349
*1464 FILLER_0_20_35
*1465 FILLER_0_20_47
*1466 FILLER_0_20_55
*1467 FILLER_0_20_65
*1468 FILLER_0_20_83
*1469 FILLER_0_20_90
*1470 FILLER_0_21_120
*1471 FILLER_0_21_147
*1472 FILLER_0_21_15
*1473 FILLER_0_21_157
*1474 FILLER_0_21_165
*1475 FILLER_0_21_169
*1476 FILLER_0_21_192
*1477 FILLER_0_21_199
*1478 FILLER_0_21_206
*1479 FILLER_0_21_222
*1480 FILLER_0_21_228
*1481 FILLER_0_21_236
*1482 FILLER_0_21_254
*1483 FILLER_0_21_272
*1484 FILLER_0_21_3
*1485 FILLER_0_21_300
*1486 FILLER_0_21_343
*1487 FILLER_0_21_39
*1488 FILLER_0_21_51
*1489 FILLER_0_21_55
*1490 FILLER_0_21_83
*1491 FILLER_0_21_95
*1492 FILLER_0_21_99
*1493 FILLER_0_22_101
*1494 FILLER_0_22_107
*1495 FILLER_0_22_114
*1496 FILLER_0_22_126
*1497 FILLER_0_22_170
*1498 FILLER_0_22_178
*1499 FILLER_0_22_197
*1500 FILLER_0_22_203
*1501 FILLER_0_22_241
*1502 FILLER_0_22_249
*1503 FILLER_0_22_253
*1504 FILLER_0_22_26
*1505 FILLER_0_22_265
*1506 FILLER_0_22_3
*1507 FILLER_0_22_306
*1508 FILLER_0_22_348
*1509 FILLER_0_22_45
*1510 FILLER_0_22_53
*1511 FILLER_0_22_80
*1512 FILLER_0_22_9
*1513 FILLER_0_23_109
*1514 FILLER_0_23_11
*1515 FILLER_0_23_113
*1516 FILLER_0_23_124
*1517 FILLER_0_23_130
*1518 FILLER_0_23_142
*1519 FILLER_0_23_150
*1520 FILLER_0_23_177
*1521 FILLER_0_23_196
*1522 FILLER_0_23_208
*1523 FILLER_0_23_215
*1524 FILLER_0_23_222
*1525 FILLER_0_23_225
*1526 FILLER_0_23_238
*1527 FILLER_0_23_250
*1528 FILLER_0_23_262
*1529 FILLER_0_23_276
*1530 FILLER_0_23_281
*1531 FILLER_0_23_296
*1532 FILLER_0_23_3
*1533 FILLER_0_23_333
*1534 FILLER_0_23_49
*1535 FILLER_0_23_55
*1536 FILLER_0_23_93
*1537 FILLER_0_24_139
*1538 FILLER_0_24_15
*1539 FILLER_0_24_162
*1540 FILLER_0_24_174
*1541 FILLER_0_24_178
*1542 FILLER_0_24_19
*1543 FILLER_0_24_194
*1544 FILLER_0_24_197
*1545 FILLER_0_24_205
*1546 FILLER_0_24_211
*1547 FILLER_0_24_225
*1548 FILLER_0_24_242
*1549 FILLER_0_24_246
*1550 FILLER_0_24_251
*1551 FILLER_0_24_256
*1552 FILLER_0_24_26
*1553 FILLER_0_24_266
*1554 FILLER_0_24_277
*1555 FILLER_0_24_288
*1556 FILLER_0_24_3
*1557 FILLER_0_24_300
*1558 FILLER_0_24_312
*1559 FILLER_0_24_324
*1560 FILLER_0_24_342
*1561 FILLER_0_24_350
*1562 FILLER_0_24_36
*1563 FILLER_0_24_48
*1564 FILLER_0_24_54
*1565 FILLER_0_24_96
*1566 FILLER_0_25_111
*1567 FILLER_0_25_131
*1568 FILLER_0_25_139
*1569 FILLER_0_25_148
*1570 FILLER_0_25_15
*1571 FILLER_0_25_169
*1572 FILLER_0_25_211
*1573 FILLER_0_25_220
*1574 FILLER_0_25_230
*1575 FILLER_0_25_24
*1576 FILLER_0_25_269
*1577 FILLER_0_25_277
*1578 FILLER_0_25_286
*1579 FILLER_0_25_3
*1580 FILLER_0_25_340
*1581 FILLER_0_25_348
*1582 FILLER_0_25_47
*1583 FILLER_0_25_54
*1584 FILLER_0_25_57
*1585 FILLER_0_25_61
*1586 FILLER_0_25_76
*1587 FILLER_0_25_86
*1588 FILLER_0_26_101
*1589 FILLER_0_26_11
*1590 FILLER_0_26_126
*1591 FILLER_0_26_130
*1592 FILLER_0_26_134
*1593 FILLER_0_26_141
*1594 FILLER_0_26_161
*1595 FILLER_0_26_173
*1596 FILLER_0_26_205
*1597 FILLER_0_26_211
*1598 FILLER_0_26_220
*1599 FILLER_0_26_232
*1600 FILLER_0_26_244
*1601 FILLER_0_26_253
*1602 FILLER_0_26_273
*1603 FILLER_0_26_3
*1604 FILLER_0_26_306
*1605 FILLER_0_26_309
*1606 FILLER_0_26_349
*1607 FILLER_0_26_49
*1608 FILLER_0_26_62
*1609 FILLER_0_27_106
*1610 FILLER_0_27_113
*1611 FILLER_0_27_131
*1612 FILLER_0_27_141
*1613 FILLER_0_27_145
*1614 FILLER_0_27_169
*1615 FILLER_0_27_173
*1616 FILLER_0_27_190
*1617 FILLER_0_27_198
*1618 FILLER_0_27_205
*1619 FILLER_0_27_217
*1620 FILLER_0_27_225
*1621 FILLER_0_27_23
*1622 FILLER_0_27_237
*1623 FILLER_0_27_249
*1624 FILLER_0_27_261
*1625 FILLER_0_27_27
*1626 FILLER_0_27_273
*1627 FILLER_0_27_279
*1628 FILLER_0_27_281
*1629 FILLER_0_27_3
*1630 FILLER_0_27_304
*1631 FILLER_0_27_320
*1632 FILLER_0_27_325
*1633 FILLER_0_27_334
*1634 FILLER_0_27_345
*1635 FILLER_0_27_57
*1636 FILLER_0_27_69
*1637 FILLER_0_27_88
*1638 FILLER_0_28_103
*1639 FILLER_0_28_109
*1640 FILLER_0_28_138
*1641 FILLER_0_28_141
*1642 FILLER_0_28_153
*1643 FILLER_0_28_159
*1644 FILLER_0_28_176
*1645 FILLER_0_28_186
*1646 FILLER_0_28_195
*1647 FILLER_0_28_197
*1648 FILLER_0_28_203
*1649 FILLER_0_28_241
*1650 FILLER_0_28_249
*1651 FILLER_0_28_258
*1652 FILLER_0_28_27
*1653 FILLER_0_28_270
*1654 FILLER_0_28_282
*1655 FILLER_0_28_288
*1656 FILLER_0_28_29
*1657 FILLER_0_28_292
*1658 FILLER_0_28_3
*1659 FILLER_0_28_304
*1660 FILLER_0_28_309
*1661 FILLER_0_28_317
*1662 FILLER_0_28_323
*1663 FILLER_0_28_328
*1664 FILLER_0_28_335
*1665 FILLER_0_28_347
*1666 FILLER_0_28_46
*1667 FILLER_0_28_58
*1668 FILLER_0_28_64
*1669 FILLER_0_28_83
*1670 FILLER_0_28_91
*1671 FILLER_0_29_109
*1672 FILLER_0_29_11
*1673 FILLER_0_29_113
*1674 FILLER_0_29_146
*1675 FILLER_0_29_167
*1676 FILLER_0_29_193
*1677 FILLER_0_29_201
*1678 FILLER_0_29_24
*1679 FILLER_0_29_273
*1680 FILLER_0_29_279
*1681 FILLER_0_29_3
*1682 FILLER_0_29_30
*1683 FILLER_0_29_300
*1684 FILLER_0_29_312
*1685 FILLER_0_29_320
*1686 FILLER_0_29_340
*1687 FILLER_0_29_42
*1688 FILLER_0_29_57
*1689 FILLER_0_29_68
*1690 FILLER_0_29_97
*1691 FILLER_0_2_102
*1692 FILLER_0_2_114
*1693 FILLER_0_2_122
*1694 FILLER_0_2_133
*1695 FILLER_0_2_141
*1696 FILLER_0_2_15
*1697 FILLER_0_2_153
*1698 FILLER_0_2_164
*1699 FILLER_0_2_195
*1700 FILLER_0_2_197
*1701 FILLER_0_2_238
*1702 FILLER_0_2_244
*1703 FILLER_0_2_27
*1704 FILLER_0_2_270
*1705 FILLER_0_2_29
*1706 FILLER_0_2_296
*1707 FILLER_0_2_3
*1708 FILLER_0_2_309
*1709 FILLER_0_2_321
*1710 FILLER_0_2_333
*1711 FILLER_0_2_345
*1712 FILLER_0_2_41
*1713 FILLER_0_2_53
*1714 FILLER_0_2_80
*1715 FILLER_0_2_85
*1716 FILLER_0_2_91
*1717 FILLER_0_30_101
*1718 FILLER_0_30_113
*1719 FILLER_0_30_121
*1720 FILLER_0_30_133
*1721 FILLER_0_30_139
*1722 FILLER_0_30_148
*1723 FILLER_0_30_15
*1724 FILLER_0_30_154
*1725 FILLER_0_30_189
*1726 FILLER_0_30_19
*1727 FILLER_0_30_195
*1728 FILLER_0_30_222
*1729 FILLER_0_30_250
*1730 FILLER_0_30_269
*1731 FILLER_0_30_3
*1732 FILLER_0_30_325
*1733 FILLER_0_30_45
*1734 FILLER_0_31_108
*1735 FILLER_0_31_11
*1736 FILLER_0_31_113
*1737 FILLER_0_31_138
*1738 FILLER_0_31_159
*1739 FILLER_0_31_16
*1740 FILLER_0_31_167
*1741 FILLER_0_31_169
*1742 FILLER_0_31_179
*1743 FILLER_0_31_191
*1744 FILLER_0_31_199
*1745 FILLER_0_31_220
*1746 FILLER_0_31_278
*1747 FILLER_0_31_281
*1748 FILLER_0_31_3
*1749 FILLER_0_31_319
*1750 FILLER_0_31_345
*1751 FILLER_0_31_41
*1752 FILLER_0_31_48
*1753 FILLER_0_31_69
*1754 FILLER_0_31_99
*1755 FILLER_0_32_105
*1756 FILLER_0_32_122
*1757 FILLER_0_32_126
*1758 FILLER_0_32_133
*1759 FILLER_0_32_169
*1760 FILLER_0_32_181