*SPEF "ieee 1481-1999"
*DESIGN "tt_um_wokwi_380490286828784641"
*DATE "11:11:11 Fri 11 11, 1111"
*VENDOR "OpenRCX"
*PROGRAM "Parallel Extraction"
*VERSION "1.0"
*DESIGN_FLOW "NAME_SCOPE LOCAL" "PIN_CAP NONE"
*DIVIDER /
*DELIMITER :
*BUS_DELIMITER []
*T_UNIT 1 NS
*C_UNIT 1 PF
*R_UNIT 1 OHM
*L_UNIT 1 HENRY

*NAME_MAP
*3 clk
*4 ena
*5 rst_n
*6 ui_in[0]
*7 ui_in[1]
*8 ui_in[2]
*9 ui_in[3]
*10 ui_in[4]
*11 ui_in[5]
*12 ui_in[6]
*13 ui_in[7]
*14 uio_in[0]
*15 uio_in[1]
*16 uio_in[2]
*17 uio_in[3]
*18 uio_in[4]
*19 uio_in[5]
*20 uio_in[6]
*21 uio_in[7]
*22 net2
*23 net3
*24 net4
*25 net5
*26 net6
*27 net7
*28 net8
*29 net9
*30 net10
*31 net11
*32 net12
*33 net13
*34 net14
*35 net15
*36 net16
*37 net17
*38 uo_out[0]
*39 uo_out[1]
*40 uo_out[2]
*41 uo_out[3]
*42 uo_out[4]
*43 uo_out[5]
*44 uo_out[6]
*45 net18
*46 _00_
*47 _01_
*48 _02_
*49 _03_
*50 _04_
*51 _05_
*52 _06_
*53 _07_
*54 _08_
*55 _09_
*56 _10_
*57 _11_
*58 clknet_0_clk
*59 clknet_1_0__leaf_clk
*60 clknet_1_1__leaf_clk
*61 flipflop1\.d
*62 flipflop1\.q
*63 flipflop2\.clk
*64 flipflop2\.d
*65 flipflop2\.q
*66 flipflop3\.clk
*67 flipflop3\.d
*68 flipflop3\.q
*69 flipflop5\.clk
*70 flipflop5\.d
*71 flipflop5\.q
*72 flipflop6\.d
*73 flipflop6\.q
*74 gate27\.out
*75 gate30\.out
*76 gate32\.out
*77 gate36\.out
*78 gate42\.out
*79 gate46\.out
*80 gate52\.out
*81 net1
*82 net19
*83 FILLER_0_0_109
*84 FILLER_0_0_113
*85 FILLER_0_0_125
*86 FILLER_0_0_137
*87 FILLER_0_0_141
*88 FILLER_0_0_15
*89 FILLER_0_0_153
*90 FILLER_0_0_165
*91 FILLER_0_0_169
*92 FILLER_0_0_181
*93 FILLER_0_0_193
*94 FILLER_0_0_197
*95 FILLER_0_0_209
*96 FILLER_0_0_221
*97 FILLER_0_0_225
*98 FILLER_0_0_237
*99 FILLER_0_0_249
*100 FILLER_0_0_253
*101 FILLER_0_0_265
*102 FILLER_0_0_27
*103 FILLER_0_0_277
*104 FILLER_0_0_281
*105 FILLER_0_0_29
*106 FILLER_0_0_293
*107 FILLER_0_0_3
*108 FILLER_0_0_305
*109 FILLER_0_0_309
*110 FILLER_0_0_321
*111 FILLER_0_0_333
*112 FILLER_0_0_337
*113 FILLER_0_0_349
*114 FILLER_0_0_41
*115 FILLER_0_0_53
*116 FILLER_0_0_57
*117 FILLER_0_0_69
*118 FILLER_0_0_81
*119 FILLER_0_0_85
*120 FILLER_0_0_97
*121 FILLER_0_10_109
*122 FILLER_0_10_121
*123 FILLER_0_10_133
*124 FILLER_0_10_139
*125 FILLER_0_10_141
*126 FILLER_0_10_15
*127 FILLER_0_10_153
*128 FILLER_0_10_165
*129 FILLER_0_10_177
*130 FILLER_0_10_189
*131 FILLER_0_10_195
*132 FILLER_0_10_197
*133 FILLER_0_10_209
*134 FILLER_0_10_221
*135 FILLER_0_10_233
*136 FILLER_0_10_245
*137 FILLER_0_10_251
*138 FILLER_0_10_253
*139 FILLER_0_10_265
*140 FILLER_0_10_27
*141 FILLER_0_10_277
*142 FILLER_0_10_289
*143 FILLER_0_10_29
*144 FILLER_0_10_3
*145 FILLER_0_10_301
*146 FILLER_0_10_307
*147 FILLER_0_10_309
*148 FILLER_0_10_321
*149 FILLER_0_10_333
*150 FILLER_0_10_345
*151 FILLER_0_10_41
*152 FILLER_0_10_53
*153 FILLER_0_10_65
*154 FILLER_0_10_77
*155 FILLER_0_10_83
*156 FILLER_0_10_85
*157 FILLER_0_10_97
*158 FILLER_0_11_105
*159 FILLER_0_11_111
*160 FILLER_0_11_113
*161 FILLER_0_11_125
*162 FILLER_0_11_137
*163 FILLER_0_11_149
*164 FILLER_0_11_15
*165 FILLER_0_11_161
*166 FILLER_0_11_167
*167 FILLER_0_11_169
*168 FILLER_0_11_181
*169 FILLER_0_11_193
*170 FILLER_0_11_205
*171 FILLER_0_11_217
*172 FILLER_0_11_223
*173 FILLER_0_11_225
*174 FILLER_0_11_237
*175 FILLER_0_11_249
*176 FILLER_0_11_261
*177 FILLER_0_11_27
*178 FILLER_0_11_273
*179 FILLER_0_11_279
*180 FILLER_0_11_281
*181 FILLER_0_11_293
*182 FILLER_0_11_3
*183 FILLER_0_11_305
*184 FILLER_0_11_317
*185 FILLER_0_11_329
*186 FILLER_0_11_335
*187 FILLER_0_11_337
*188 FILLER_0_11_349
*189 FILLER_0_11_39
*190 FILLER_0_11_51
*191 FILLER_0_11_55
*192 FILLER_0_11_57
*193 FILLER_0_11_69
*194 FILLER_0_11_81
*195 FILLER_0_11_93
*196 FILLER_0_12_109
*197 FILLER_0_12_121
*198 FILLER_0_12_133
*199 FILLER_0_12_139
*200 FILLER_0_12_141
*201 FILLER_0_12_15
*202 FILLER_0_12_153
*203 FILLER_0_12_165
*204 FILLER_0_12_177
*205 FILLER_0_12_189
*206 FILLER_0_12_195
*207 FILLER_0_12_197
*208 FILLER_0_12_209
*209 FILLER_0_12_221
*210 FILLER_0_12_233
*211 FILLER_0_12_245
*212 FILLER_0_12_251
*213 FILLER_0_12_253
*214 FILLER_0_12_265
*215 FILLER_0_12_27
*216 FILLER_0_12_277
*217 FILLER_0_12_289
*218 FILLER_0_12_29
*219 FILLER_0_12_3
*220 FILLER_0_12_301
*221 FILLER_0_12_307
*222 FILLER_0_12_309
*223 FILLER_0_12_321
*224 FILLER_0_12_333
*225 FILLER_0_12_345
*226 FILLER_0_12_41
*227 FILLER_0_12_53
*228 FILLER_0_12_65
*229 FILLER_0_12_77
*230 FILLER_0_12_83
*231 FILLER_0_12_85
*232 FILLER_0_12_97
*233 FILLER_0_13_105
*234 FILLER_0_13_111
*235 FILLER_0_13_113
*236 FILLER_0_13_125
*237 FILLER_0_13_137
*238 FILLER_0_13_149
*239 FILLER_0_13_15
*240 FILLER_0_13_161
*241 FILLER_0_13_167
*242 FILLER_0_13_169
*243 FILLER_0_13_181
*244 FILLER_0_13_193
*245 FILLER_0_13_205
*246 FILLER_0_13_217
*247 FILLER_0_13_223
*248 FILLER_0_13_225
*249 FILLER_0_13_237
*250 FILLER_0_13_249
*251 FILLER_0_13_261
*252 FILLER_0_13_27
*253 FILLER_0_13_273
*254 FILLER_0_13_279
*255 FILLER_0_13_281
*256 FILLER_0_13_293
*257 FILLER_0_13_3
*258 FILLER_0_13_305
*259 FILLER_0_13_317
*260 FILLER_0_13_329
*261 FILLER_0_13_335
*262 FILLER_0_13_337
*263 FILLER_0_13_349
*264 FILLER_0_13_39
*265 FILLER_0_13_51
*266 FILLER_0_13_55
*267 FILLER_0_13_57
*268 FILLER_0_13_69
*269 FILLER_0_13_81
*270 FILLER_0_13_93
*271 FILLER_0_14_109
*272 FILLER_0_14_121
*273 FILLER_0_14_133
*274 FILLER_0_14_139
*275 FILLER_0_14_141
*276 FILLER_0_14_15
*277 FILLER_0_14_153
*278 FILLER_0_14_165
*279 FILLER_0_14_177
*280 FILLER_0_14_189
*281 FILLER_0_14_195
*282 FILLER_0_14_197
*283 FILLER_0_14_209
*284 FILLER_0_14_221
*285 FILLER_0_14_233
*286 FILLER_0_14_245
*287 FILLER_0_14_251
*288 FILLER_0_14_253
*289 FILLER_0_14_265
*290 FILLER_0_14_27
*291 FILLER_0_14_277
*292 FILLER_0_14_289
*293 FILLER_0_14_29
*294 FILLER_0_14_3
*295 FILLER_0_14_301
*296 FILLER_0_14_307
*297 FILLER_0_14_309
*298 FILLER_0_14_321
*299 FILLER_0_14_333
*300 FILLER_0_14_345
*301 FILLER_0_14_41
*302 FILLER_0_14_53
*303 FILLER_0_14_65
*304 FILLER_0_14_77
*305 FILLER_0_14_83
*306 FILLER_0_14_85
*307 FILLER_0_14_97
*308 FILLER_0_15_105
*309 FILLER_0_15_111
*310 FILLER_0_15_113
*311 FILLER_0_15_125
*312 FILLER_0_15_137
*313 FILLER_0_15_149
*314 FILLER_0_15_15
*315 FILLER_0_15_161
*316 FILLER_0_15_167
*317 FILLER_0_15_169
*318 FILLER_0_15_181
*319 FILLER_0_15_193
*320 FILLER_0_15_205
*321 FILLER_0_15_217
*322 FILLER_0_15_223
*323 FILLER_0_15_225
*324 FILLER_0_15_237
*325 FILLER_0_15_249
*326 FILLER_0_15_261
*327 FILLER_0_15_27
*328 FILLER_0_15_273
*329 FILLER_0_15_279
*330 FILLER_0_15_281
*331 FILLER_0_15_293
*332 FILLER_0_15_3
*333 FILLER_0_15_305
*334 FILLER_0_15_317
*335 FILLER_0_15_329
*336 FILLER_0_15_335
*337 FILLER_0_15_337
*338 FILLER_0_15_349
*339 FILLER_0_15_39
*340 FILLER_0_15_51
*341 FILLER_0_15_55
*342 FILLER_0_15_57
*343 FILLER_0_15_69
*344 FILLER_0_15_81
*345 FILLER_0_15_93
*346 FILLER_0_16_109
*347 FILLER_0_16_121
*348 FILLER_0_16_133
*349 FILLER_0_16_139
*350 FILLER_0_16_141
*351 FILLER_0_16_15
*352 FILLER_0_16_153
*353 FILLER_0_16_165
*354 FILLER_0_16_177
*355 FILLER_0_16_189
*356 FILLER_0_16_195
*357 FILLER_0_16_197
*358 FILLER_0_16_209
*359 FILLER_0_16_221
*360 FILLER_0_16_233
*361 FILLER_0_16_245
*362 FILLER_0_16_251
*363 FILLER_0_16_253
*364 FILLER_0_16_265
*365 FILLER_0_16_27
*366 FILLER_0_16_277
*367 FILLER_0_16_289
*368 FILLER_0_16_29
*369 FILLER_0_16_3
*370 FILLER_0_16_301
*371 FILLER_0_16_307
*372 FILLER_0_16_309
*373 FILLER_0_16_321
*374 FILLER_0_16_333
*375 FILLER_0_16_345
*376 FILLER_0_16_41
*377 FILLER_0_16_53
*378 FILLER_0_16_65
*379 FILLER_0_16_77
*380 FILLER_0_16_83
*381 FILLER_0_16_85
*382 FILLER_0_16_97
*383 FILLER_0_17_105
*384 FILLER_0_17_111
*385 FILLER_0_17_113
*386 FILLER_0_17_125
*387 FILLER_0_17_137
*388 FILLER_0_17_149
*389 FILLER_0_17_15
*390 FILLER_0_17_161
*391 FILLER_0_17_167
*392 FILLER_0_17_169
*393 FILLER_0_17_181
*394 FILLER_0_17_193
*395 FILLER_0_17_205
*396 FILLER_0_17_217
*397 FILLER_0_17_223
*398 FILLER_0_17_225
*399 FILLER_0_17_237
*400 FILLER_0_17_249
*401 FILLER_0_17_261
*402 FILLER_0_17_27
*403 FILLER_0_17_273
*404 FILLER_0_17_279
*405 FILLER_0_17_281
*406 FILLER_0_17_293
*407 FILLER_0_17_3
*408 FILLER_0_17_305
*409 FILLER_0_17_317
*410 FILLER_0_17_329
*411 FILLER_0_17_335
*412 FILLER_0_17_337
*413 FILLER_0_17_349
*414 FILLER_0_17_39
*415 FILLER_0_17_51
*416 FILLER_0_17_55
*417 FILLER_0_17_57
*418 FILLER_0_17_69
*419 FILLER_0_17_81
*420 FILLER_0_17_93
*421 FILLER_0_18_109
*422 FILLER_0_18_121
*423 FILLER_0_18_133
*424 FILLER_0_18_139
*425 FILLER_0_18_141
*426 FILLER_0_18_15
*427 FILLER_0_18_153
*428 FILLER_0_18_165
*429 FILLER_0_18_177
*430 FILLER_0_18_189
*431 FILLER_0_18_195
*432 FILLER_0_18_197
*433 FILLER_0_18_209
*434 FILLER_0_18_221
*435 FILLER_0_18_233
*436 FILLER_0_18_245
*437 FILLER_0_18_251
*438 FILLER_0_18_253
*439 FILLER_0_18_265
*440 FILLER_0_18_27
*441 FILLER_0_18_277
*442 FILLER_0_18_289
*443 FILLER_0_18_29
*444 FILLER_0_18_3
*445 FILLER_0_18_301
*446 FILLER_0_18_307
*447 FILLER_0_18_309
*448 FILLER_0_18_321
*449 FILLER_0_18_333
*450 FILLER_0_18_345
*451 FILLER_0_18_41
*452 FILLER_0_18_53
*453 FILLER_0_18_65
*454 FILLER_0_18_77
*455 FILLER_0_18_83
*456 FILLER_0_18_85
*457 FILLER_0_18_97
*458 FILLER_0_19_105
*459 FILLER_0_19_111
*460 FILLER_0_19_113
*461 FILLER_0_19_125
*462 FILLER_0_19_137
*463 FILLER_0_19_149
*464 FILLER_0_19_15
*465 FILLER_0_19_161
*466 FILLER_0_19_167
*467 FILLER_0_19_169
*468 FILLER_0_19_181
*469 FILLER_0_19_193
*470 FILLER_0_19_205
*471 FILLER_0_19_217
*472 FILLER_0_19_223
*473 FILLER_0_19_225
*474 FILLER_0_19_237
*475 FILLER_0_19_249
*476 FILLER_0_19_261
*477 FILLER_0_19_27
*478 FILLER_0_19_273
*479 FILLER_0_19_279
*480 FILLER_0_19_281
*481 FILLER_0_19_293
*482 FILLER_0_19_3
*483 FILLER_0_19_305
*484 FILLER_0_19_317
*485 FILLER_0_19_329
*486 FILLER_0_19_335
*487 FILLER_0_19_337
*488 FILLER_0_19_349
*489 FILLER_0_19_39
*490 FILLER_0_19_51
*491 FILLER_0_19_55
*492 FILLER_0_19_57
*493 FILLER_0_19_69
*494 FILLER_0_19_81
*495 FILLER_0_19_93
*496 FILLER_0_1_105
*497 FILLER_0_1_111
*498 FILLER_0_1_113
*499 FILLER_0_1_125
*500 FILLER_0_1_137
*501 FILLER_0_1_149
*502 FILLER_0_1_15
*503 FILLER_0_1_161
*504 FILLER_0_1_167
*505 FILLER_0_1_169
*506 FILLER_0_1_181
*507 FILLER_0_1_193
*508 FILLER_0_1_205
*509 FILLER_0_1_217
*510 FILLER_0_1_223
*511 FILLER_0_1_225
*512 FILLER_0_1_237
*513 FILLER_0_1_249
*514 FILLER_0_1_261
*515 FILLER_0_1_27
*516 FILLER_0_1_273
*517 FILLER_0_1_279
*518 FILLER_0_1_281
*519 FILLER_0_1_293
*520 FILLER_0_1_3
*521 FILLER_0_1_305
*522 FILLER_0_1_317
*523 FILLER_0_1_329
*524 FILLER_0_1_335
*525 FILLER_0_1_337
*526 FILLER_0_1_349
*527 FILLER_0_1_39
*528 FILLER_0_1_51
*529 FILLER_0_1_55
*530 FILLER_0_1_57
*531 FILLER_0_1_69
*532 FILLER_0_1_81
*533 FILLER_0_1_93
*534 FILLER_0_20_109
*535 FILLER_0_20_121
*536 FILLER_0_20_133
*537 FILLER_0_20_139
*538 FILLER_0_20_141
*539 FILLER_0_20_15
*540 FILLER_0_20_153
*541 FILLER_0_20_165
*542 FILLER_0_20_177
*543 FILLER_0_20_189
*544 FILLER_0_20_195
*545 FILLER_0_20_197
*546 FILLER_0_20_209
*547 FILLER_0_20_221
*548 FILLER_0_20_233
*549 FILLER_0_20_245
*550 FILLER_0_20_251
*551 FILLER_0_20_253
*552 FILLER_0_20_265
*553 FILLER_0_20_27
*554 FILLER_0_20_277
*555 FILLER_0_20_289
*556 FILLER_0_20_29
*557 FILLER_0_20_3
*558 FILLER_0_20_301
*559 FILLER_0_20_307
*560 FILLER_0_20_309
*561 FILLER_0_20_321
*562 FILLER_0_20_333
*563 FILLER_0_20_345
*564 FILLER_0_20_41
*565 FILLER_0_20_53
*566 FILLER_0_20_65
*567 FILLER_0_20_77
*568 FILLER_0_20_83
*569 FILLER_0_20_85
*570 FILLER_0_20_97
*571 FILLER_0_21_105
*572 FILLER_0_21_111
*573 FILLER_0_21_113
*574 FILLER_0_21_125
*575 FILLER_0_21_137
*576 FILLER_0_21_149
*577 FILLER_0_21_15
*578 FILLER_0_21_161
*579 FILLER_0_21_167
*580 FILLER_0_21_169
*581 FILLER_0_21_181
*582 FILLER_0_21_193
*583 FILLER_0_21_205
*584 FILLER_0_21_217
*585 FILLER_0_21_223
*586 FILLER_0_21_225
*587 FILLER_0_21_237
*588 FILLER_0_21_249
*589 FILLER_0_21_261
*590 FILLER_0_21_27
*591 FILLER_0_21_273
*592 FILLER_0_21_279
*593 FILLER_0_21_281
*594 FILLER_0_21_293
*595 FILLER_0_21_3
*596 FILLER_0_21_305
*597 FILLER_0_21_317
*598 FILLER_0_21_329
*599 FILLER_0_21_335
*600 FILLER_0_21_337
*601 FILLER_0_21_349
*602 FILLER_0_21_39
*603 FILLER_0_21_51
*604 FILLER_0_21_55
*605 FILLER_0_21_57
*606 FILLER_0_21_69
*607 FILLER_0_21_81
*608 FILLER_0_21_93
*609 FILLER_0_22_109
*610 FILLER_0_22_121
*611 FILLER_0_22_133
*612 FILLER_0_22_139
*613 FILLER_0_22_141
*614 FILLER_0_22_15
*615 FILLER_0_22_153
*616 FILLER_0_22_165
*617 FILLER_0_22_177
*618 FILLER_0_22_189
*619 FILLER_0_22_195
*620 FILLER_0_22_197
*621 FILLER_0_22_209
*622 FILLER_0_22_221
*623 FILLER_0_22_233
*624 FILLER_0_22_245
*625 FILLER_0_22_251
*626 FILLER_0_22_253
*627 FILLER_0_22_265
*628 FILLER_0_22_27
*629 FILLER_0_22_277
*630 FILLER_0_22_289
*631 FILLER_0_22_29
*632 FILLER_0_22_3
*633 FILLER_0_22_301
*634 FILLER_0_22_307
*635 FILLER_0_22_309
*636 FILLER_0_22_321
*637 FILLER_0_22_333
*638 FILLER_0_22_345
*639 FILLER_0_22_41
*640 FILLER_0_22_53
*641 FILLER_0_22_65
*642 FILLER_0_22_77
*643 FILLER_0_22_83
*644 FILLER_0_22_85
*645 FILLER_0_22_97
*646 FILLER_0_23_105
*647 FILLER_0_23_111
*648 FILLER_0_23_113
*649 FILLER_0_23_125
*650 FILLER_0_23_137
*651 FILLER_0_23_149
*652 FILLER_0_23_15
*653 FILLER_0_23_161
*654 FILLER_0_23_167
*655 FILLER_0_23_169
*656 FILLER_0_23_181
*657 FILLER_0_23_193
*658 FILLER_0_23_205
*659 FILLER_0_23_217
*660 FILLER_0_23_223
*661 FILLER_0_23_225
*662 FILLER_0_23_237
*663 FILLER_0_23_249
*664 FILLER_0_23_261
*665 FILLER_0_23_27
*666 FILLER_0_23_273
*667 FILLER_0_23_279
*668 FILLER_0_23_281
*669 FILLER_0_23_293
*670 FILLER_0_23_3
*671 FILLER_0_23_305
*672 FILLER_0_23_317
*673 FILLER_0_23_329
*674 FILLER_0_23_335
*675 FILLER_0_23_337
*676 FILLER_0_23_349
*677 FILLER_0_23_39
*678 FILLER_0_23_51
*679 FILLER_0_23_55
*680 FILLER_0_23_57
*681 FILLER_0_23_69
*682 FILLER_0_23_81
*683 FILLER_0_23_93
*684 FILLER_0_24_109
*685 FILLER_0_24_121
*686 FILLER_0_24_133
*687 FILLER_0_24_139
*688 FILLER_0_24_141
*689 FILLER_0_24_15
*690 FILLER_0_24_153
*691 FILLER_0_24_165
*692 FILLER_0_24_177
*693 FILLER_0_24_189
*694 FILLER_0_24_195
*695 FILLER_0_24_197
*696 FILLER_0_24_209
*697 FILLER_0_24_221
*698 FILLER_0_24_233
*699 FILLER_0_24_245
*700 FILLER_0_24_251
*701 FILLER_0_24_253
*702 FILLER_0_24_265
*703 FILLER_0_24_27
*704 FILLER_0_24_277
*705 FILLER_0_24_289
*706 FILLER_0_24_29
*707 FILLER_0_24_3
*708 FILLER_0_24_301
*709 FILLER_0_24_307
*710 FILLER_0_24_309
*711 FILLER_0_24_321
*712 FILLER_0_24_333
*713 FILLER_0_24_345
*714 FILLER_0_24_41
*715 FILLER_0_24_53
*716 FILLER_0_24_65
*717 FILLER_0_24_77
*718 FILLER_0_24_83
*719 FILLER_0_24_85
*720 FILLER_0_24_97
*721 FILLER_0_25_105
*722 FILLER_0_25_111
*723 FILLER_0_25_113
*724 FILLER_0_25_125
*725 FILLER_0_25_137
*726 FILLER_0_25_149
*727 FILLER_0_25_15
*728 FILLER_0_25_161
*729 FILLER_0_25_167
*730 FILLER_0_25_169
*731 FILLER_0_25_181
*732 FILLER_0_25_193
*733 FILLER_0_25_205
*734 FILLER_0_25_217
*735 FILLER_0_25_223
*736 FILLER_0_25_225
*737 FILLER_0_25_237
*738 FILLER_0_25_249
*739 FILLER_0_25_261
*740 FILLER_0_25_27
*741 FILLER_0_25_273
*742 FILLER_0_25_279
*743 FILLER_0_25_281
*744 FILLER_0_25_293
*745 FILLER_0_25_3
*746 FILLER_0_25_305
*747 FILLER_0_25_317
*748 FILLER_0_25_329
*749 FILLER_0_25_335
*750 FILLER_0_25_337
*751 FILLER_0_25_349
*752 FILLER_0_25_39
*753 FILLER_0_25_51
*754 FILLER_0_25_55
*755 FILLER_0_25_57
*756 FILLER_0_25_69
*757 FILLER_0_25_81
*758 FILLER_0_25_93
*759 FILLER_0_26_109
*760 FILLER_0_26_121
*761 FILLER_0_26_133
*762 FILLER_0_26_139
*763 FILLER_0_26_141
*764 FILLER_0_26_15
*765 FILLER_0_26_153
*766 FILLER_0_26_165
*767 FILLER_0_26_177
*768 FILLER_0_26_189
*769 FILLER_0_26_195
*770 FILLER_0_26_197
*771 FILLER_0_26_209
*772 FILLER_0_26_221
*773 FILLER_0_26_233
*774 FILLER_0_26_245
*775 FILLER_0_26_251
*776 FILLER_0_26_253
*777 FILLER_0_26_265
*778 FILLER_0_26_27
*779 FILLER_0_26_277
*780 FILLER_0_26_289
*781 FILLER_0_26_29
*782 FILLER_0_26_3
*783 FILLER_0_26_301
*784 FILLER_0_26_307
*785 FILLER_0_26_309
*786 FILLER_0_26_321
*787 FILLER_0_26_333
*788 FILLER_0_26_345
*789 FILLER_0_26_41
*790 FILLER_0_26_53
*791 FILLER_0_26_65
*792 FILLER_0_26_77
*793 FILLER_0_26_83
*794 FILLER_0_26_85
*795 FILLER_0_26_97
*796 FILLER_0_27_105
*797 FILLER_0_27_111
*798 FILLER_0_27_113
*799 FILLER_0_27_125
*800 FILLER_0_27_137
*801 FILLER_0_27_149
*802 FILLER_0_27_15
*803 FILLER_0_27_161
*804 FILLER_0_27_167
*805 FILLER_0_27_169
*806 FILLER_0_27_181
*807 FILLER_0_27_193
*808 FILLER_0_27_205
*809 FILLER_0_27_217
*810 FILLER_0_27_223
*811 FILLER_0_27_225
*812 FILLER_0_27_237
*813 FILLER_0_27_249
*814 FILLER_0_27_261
*815 FILLER_0_27_27
*816 FILLER_0_27_273
*817 FILLER_0_27_279
*818 FILLER_0_27_281
*819 FILLER_0_27_293
*820 FILLER_0_27_3
*821 FILLER_0_27_305
*822 FILLER_0_27_317
*823 FILLER_0_27_329
*824 FILLER_0_27_335
*825 FILLER_0_27_337
*826 FILLER_0_27_349
*827 FILLER_0_27_39
*828 FILLER_0_27_51
*829 FILLER_0_27_55
*830 FILLER_0_27_57
*831 FILLER_0_27_69
*832 FILLER_0_27_81
*833 FILLER_0_27_93
*834 FILLER_0_28_109
*835 FILLER_0_28_121
*836 FILLER_0_28_133
*837 FILLER_0_28_139
*838 FILLER_0_28_141
*839 FILLER_0_28_15
*840 FILLER_0_28_153
*841 FILLER_0_28_165
*842 FILLER_0_28_177
*843 FILLER_0_28_189
*844 FILLER_0_28_195
*845 FILLER_0_28_197
*846 FILLER_0_28_209
*847 FILLER_0_28_221
*848 FILLER_0_28_233
*849 FILLER_0_28_245
*850 FILLER_0_28_251
*851 FILLER_0_28_253
*852 FILLER_0_28_265
*853 FILLER_0_28_27
*854 FILLER_0_28_277
*855 FILLER_0_28_289
*856 FILLER_0_28_29
*857 FILLER_0_28_3
*858 FILLER_0_28_301
*859 FILLER_0_28_307
*860 FILLER_0_28_309
*861 FILLER_0_28_321
*862 FILLER_0_28_333
*863 FILLER_0_28_345
*864 FILLER_0_28_41
*865 FILLER_0_28_53
*866 FILLER_0_28_65
*867 FILLER_0_28_77
*868 FILLER_0_28_83
*869 FILLER_0_28_85
*870 FILLER_0_28_97
*871 FILLER_0_29_105
*872 FILLER_0_29_111
*873 FILLER_0_29_113
*874 FILLER_0_29_125
*875 FILLER_0_29_137
*876 FILLER_0_29_149
*877 FILLER_0_29_15
*878 FILLER_0_29_161
*879 FILLER_0_29_167
*880 FILLER_0_29_169
*881 FILLER_0_29_181
*882 FILLER_0_29_193
*883 FILLER_0_29_205
*884 FILLER_0_29_217
*885 FILLER_0_29_223
*886 FILLER_0_29_225
*887 FILLER_0_29_237
*888 FILLER_0_29_249
*889 FILLER_0_29_261
*890 FILLER_0_29_27
*891 FILLER_0_29_273
*892 FILLER_0_29_279
*893 FILLER_0_29_281
*894 FILLER_0_29_293
*895 FILLER_0_29_3
*896 FILLER_0_29_305
*897 FILLER_0_29_317
*898 FILLER_0_29_329
*899 FILLER_0_29_335
*900 FILLER_0_29_337
*901 FILLER_0_29_349
*902 FILLER_0_29_39
*903 FILLER_0_29_51
*904 FILLER_0_29_55
*905 FILLER_0_29_57
*906 FILLER_0_29_69
*907 FILLER_0_29_81
*908 FILLER_0_29_93
*909 FILLER_0_2_109
*910 FILLER_0_2_121
*911 FILLER_0_2_133
*912 FILLER_0_2_139
*913 FILLER_0_2_141
*914 FILLER_0_2_15
*915 FILLER_0_2_153
*916 FILLER_0_2_165
*917 FILLER_0_2_177
*918 FILLER_0_2_189
*919 FILLER_0_2_195
*920 FILLER_0_2_197
*921 FILLER_0_2_209
*922 FILLER_0_2_221
*923 FILLER_0_2_233
*924 FILLER_0_2_245
*925 FILLER_0_2_251
*926 FILLER_0_2_253
*927 FILLER_0_2_265
*928 FILLER_0_2_27
*929 FILLER_0_2_277
*930 FILLER_0_2_289
*931 FILLER_0_2_29
*932 FILLER_0_2_3
*933 FILLER_0_2_301
*934 FILLER_0_2_307
*935 FILLER_0_2_309
*936 FILLER_0_2_321
*937 FILLER_0_2_333
*938 FILLER_0_2_345
*939 FILLER_0_2_41
*940 FILLER_0_2_53
*941 FILLER_0_2_65
*942 FILLER_0_2_77
*943 FILLER_0_2_83
*944 FILLER_0_2_85
*945 FILLER_0_2_97
*946 FILLER_0_30_109
*947 FILLER_0_30_121
*948 FILLER_0_30_133
*949 FILLER_0_30_139
*950 FILLER_0_30_141
*951 FILLER_0_30_15
*952 FILLER_0_30_153
*953 FILLER_0_30_165
*954 FILLER_0_30_177
*955 FILLER_0_30_189
*956 FILLER_0_30_195
*957 FILLER_0_30_197
*958 FILLER_0_30_209
*959 FILLER_0_30_221
*960 FILLER_0_30_233
*961 FILLER_0_30_245
*962 FILLER_0_30_251
*963 FILLER_0_30_253
*964 FILLER_0_30_265
*965 FILLER_0_30_27
*966 FILLER_0_30_277
*967 FILLER_0_30_289
*968 FILLER_0_30_29
*969 FILLER_0_30_3
*970 FILLER_0_30_301
*971 FILLER_0_30_307
*972 FILLER_0_30_309
*973 FILLER_0_30_321
*974 FILLER_0_30_333
*975 FILLER_0_30_345
*976 FILLER_0_30_41
*977 FILLER_0_30_53
*978 FILLER_0_30_65
*979 FILLER_0_30_77
*980 FILLER_0_30_83
*981 FILLER_0_30_85
*982 FILLER_0_30_97
*983 FILLER_0_31_105
*984 FILLER_0_31_111
*985 FILLER_0_31_113
*986 FILLER_0_31_125
*987 FILLER_0_31_137
*988 FILLER_0_31_149
*989 FILLER_0_31_15
*990 FILLER_0_31_161
*991 FILLER_0_31_167
*992 FILLER_0_31_169
*993 FILLER_0_31_181
*994 FILLER_0_31_193
*995 FILLER_0_31_205
*996 FILLER_0_31_217
*997 FILLER_0_31_223
*998 FILLER_0_31_225
*999 FILLER_0_31_237
*1000 FILLER_0_31_249
*1001 FILLER_0_31_261
*1002 FILLER_0_31_27
*1003 FILLER_0_31_273
*1004 FILLER_0_31_279
*1005 FILLER_0_31_281
*1006 FILLER_0_31_293
*1007 FILLER_0_31_3
*1008 FILLER_0_31_305
*1009 FILLER_0_31_317
*1010 FILLER_0_31_329
*1011 FILLER_0_31_335
*1012 FILLER_0_31_337
*1013 FILLER_0_31_349
*1014 FILLER_0_31_39
*1015 FILLER_0_31_51
*1016 FILLER_0_31_55
*1017 FILLER_0_31_57
*1018 FILLER_0_31_69
*1019 FILLER_0_31_81
*1020 FILLER_0_31_93
*1021 FILLER_0_32_109
*1022 FILLER_0_32_121
*1023 FILLER_0_32_133
*1024 FILLER_0_32_139
*1025 FILLER_0_32_141
*1026 FILLER_0_32_15
*1027 FILLER_0_32_153
*1028 FILLER_0_32_165
*1029 FILLER_0_32_177
*1030 FILLER_0_32_189
*1031 FILLER_0_32_195
*1032 FILLER_0_32_197
*1033 FILLER_0_32_209
*1034 FILLER_0_32_221
*1035 FILLER_0_32_233
*1036 FILLER_0_32_245
*1037 FILLER_0_32_251
*1038 FILLER_0_32_253
*1039 FILLER_0_32_265
*1040 FILLER_0_32_27
*1041 FILLER_0_32_277
*1042 FILLER_0_32_289
*1043 FILLER_0_32_29
*1044 FILLER_0_32_3
*1045 FILLER_0_32_301
*1046 FILLER_0_32_307
*1047 FILLER_0_32_309
*1048 FILLER_0_32_321
*1049 FILLER_0_32_333
*1050 FILLER_0_32_345
*1051 FILLER_0_32_41
*1052 FILLER_0_32_53
*1053 FILLER_0_32_65
*1054 FILLER_0_32_77
*1055 FILLER_0_32_83
*1056 FILLER_0_32_85
*1057 FILLER_0_32_97
*1058 FILLER_0_33_105
*1059 FILLER_0_33_111
*1060 FILLER_0_33_113
*1061 FILLER_0_33_125
*1062 FILLER_0_33_137
*1063 FILLER_0_33_149
*1064 FILLER_0_33_15
*1065 FILLER_0_33_161
*1066 FILLER_0_33_167
*1067 FILLER_0_33_169
*1068 FILLER_0_33_181
*1069 FILLER_0_33_193
*1070 FILLER_0_33_205
*1071 FILLER_0_33_217
*1072 FILLER_0_33_223
*1073 FILLER_0_33_225
*1074 FILLER_0_33_237
*1075 FILLER_0_33_249
*1076 FILLER_0_33_261
*1077 FILLER_0_33_27
*1078 FILLER_0_33_273
*1079 FILLER_0_33_279
*1080 FILLER_0_33_281
*1081 FILLER_0_33_293
*1082 FILLER_0_33_3
*1083 FILLER_0_33_305
*1084 FILLER_0_33_317
*1085 FILLER_0_33_329
*1086 FILLER_0_33_335
*1087 FILLER_0_33_337
*1088 FILLER_0_33_349
*1089 FILLER_0_33_39
*1090 FILLER_0_33_51
*1091 FILLER_0_33_55
*1092 FILLER_0_33_57
*1093 FILLER_0_33_69
*1094 FILLER_0_33_81
*1095 FILLER_0_33_93
*1096 FILLER_0_34_109
*1097 FILLER_0_34_121
*1098 FILLER_0_34_133
*1099 FILLER_0_34_139
*1100 FILLER_0_34_141
*1101 FILLER_0_34_15
*1102 FILLER_0_34_153
*1103 FILLER_0_34_165
*1104 FILLER_0_34_177
*1105 FILLER_0_34_189
*1106 FILLER_0_34_195
*1107 FILLER_0_34_197
*1108 FILLER_0_34_209
*1109 FILLER_0_34_221
*1110 FILLER_0_34_229
*1111 FILLER_0_34_251
*1112 FILLER_0_34_269
*1113 FILLER_0_34_27
*1114 FILLER_0_34_29
*1115 FILLER_0_34_3
*1116 FILLER_0_34_309
*1117 FILLER_0_34_321
*1118 FILLER_0_34_333
*1119 FILLER_0_34_345
*1120 FILLER_0_34_41
*1121 FILLER_0_34_53
*1122 FILLER_0_34_65
*1123 FILLER_0_34_77
*1124 FILLER_0_34_83
*1125 FILLER_0_34_85
*1126 FILLER_0_34_97
*1127 FILLER_0_35_105
*1128 FILLER_0_35_111
*1129 FILLER_0_35_113
*1130 FILLER_0_35_125
*1131 FILLER_0_35_137
*1132 FILLER_0_35_149
*1133 FILLER_0_35_15
*1134 FILLER_0_35_161
*1135 FILLER_0_35_167
*1136 FILLER_0_35_169
*1137 FILLER_0_35_181
*1138 FILLER_0_35_193
*1139 FILLER_0_35_205
*1140 FILLER_0_35_217
*1141 FILLER_0_35_223
*1142 FILLER_0_35_244
*1143 FILLER_0_35_253
*1144 FILLER_0_35_27
*1145 FILLER_0_35_278
*1146 FILLER_0_35_281
*1147 FILLER_0_35_293
*1148 FILLER_0_35_3
*1149 FILLER_0_35_305
*1150 FILLER_0_35_317
*1151 FILLER_0_35_329
*1152 FILLER_0_35_335
*1153 FILLER_0_35_337
*1154 FILLER_0_35_349
*1155 FILLER_0_35_39
*1156 FILLER_0_35_51
*1157 FILLER_0_35_55
*1158 FILLER_0_35_57
*1159 FILLER_0_35_69
*1160 FILLER_0_35_81
*1161 FILLER_0_35_93
*1162 FILLER_0_36_109
*1163 FILLER_0_36_121
*1164 FILLER_0_36_133
*1165 FILLER_0_36_139
*1166 FILLER_0_36_141
*1167 FILLER_0_36_15
*1168 FILLER_0_36_153
*1169 FILLER_0_36_165
*1170 FILLER_0_36_177
*1171 FILLER_0_36_185
*1172 FILLER_0_36_192
*1173 FILLER_0_36_197
*1174 FILLER_0_36_223
*1175 FILLER_0_36_231
*1176 FILLER_0_36_240
*1177 FILLER_0_36_27
*1178 FILLER_0_36_29
*1179 FILLER_0_36_3
*1180 FILLER_0_36_303
*1181 FILLER_0_36_307
*1182 FILLER_0_36_309
*1183 FILLER_0_36_321
*1184 FILLER_0_36_333
*1185 FILLER_0_36_345
*1186 FILLER_0_36_41
*1187 FILLER_0_36_53
*1188 FILLER_0_36_65
*1189 FILLER_0_36_77
*1190 FILLER_0_36_83
*1191 FILLER_0_36_85
*1192 FILLER_0_36_97
*1193 FILLER_0_37_105
*1194 FILLER_0_37_111
*1195 FILLER_0_37_113
*1196 FILLER_0_37_125
*1197 FILLER_0_37_137
*1198 FILLER_0_37_149
*1199 FILLER_0_37_15
*1200 FILLER_0_37_161
*1201 FILLER_0_37_167
*1202 FILLER_0_37_169
*1203 FILLER_0_37_174
*1204 FILLER_0_37_182
*1205 FILLER_0_37_200
*1206 FILLER_0_37_225
*1207 FILLER_0_37_229
*1208 FILLER_0_37_246
*1209 FILLER_0_37_264
*1210 FILLER_0_37_27
*1211 FILLER_0_37_279
*1212 FILLER_0_37_281
*1213 FILLER_0_37_293
*1214 FILLER_0_37_3
*1215 FILLER_0_37_305
*1216 FILLER_0_37_317
*1217 FILLER_0_37_329
*1218 FILLER_0_37_335
*1219 FILLER_0_37_337
*1220 FILLER_0_37_349
*1221 FILLER_0_37_39
*1222 FILLER_0_37_51
*1223 FILLER_0_37_55
*1224 FILLER_0_37_57
*1225 FILLER_0_37_69
*1226 FILLER_0_37_81
*1227 FILLER_0_37_93
*1228 FILLER_0_38_104
*1229 FILLER_0_38_110
*1230 FILLER_0_38_116
*1231 FILLER_0_38_122
*1232 FILLER_0_38_128
*1233 FILLER_0_38_134
*1234 FILLER_0_38_141
*1235 FILLER_0_38_146
*1236 FILLER_0_38_15
*1237 FILLER_0_38_152
*1238 FILLER_0_38_158
*1239 FILLER_0_38_169
*1240 FILLER_0_38_177
*1241 FILLER_0_38_182
*1242 FILLER_0_38_187
*1243 FILLER_0_38_195
*1244 FILLER_0_38_201
*1245 FILLER_0_38_209
*1246 FILLER_0_38_218
*1247 FILLER_0_38_225
*1248 FILLER_0_38_233
*1249 FILLER_0_38_243
*1250 FILLER_0_38_251
*1251 FILLER_0_38_253
*1252 FILLER_0_38_265
*1253 FILLER_0_38_27
*1254 FILLER_0_38_277
*1255 FILLER_0_38_281
*1256 FILLER_0_38_29
*1257 FILLER_0_38_293
*1258 FILLER_0_38_3
*1259 FILLER_0_38_309
*1260 FILLER_0_38_321
*1261 FILLER_0_38_333
*1262 FILLER_0_38_337
*1263 FILLER_0_38_349
*1264 FILLER_0_38_41
*1265 FILLER_0_38_53
*1266 FILLER_0_38_57
*1267 FILLER_0_38_68
*1268 FILLER_0_38_74
*1269 FILLER_0_38_80
*1270 FILLER_0_38_88
*1271 FILLER_0_38_92
*1272 FILLER_0_38_98
*1273 FILLER_0_3_105
*1274 FILLER_0_3_111
*1275 FILLER_0_3_113
*1276 FILLER_0_3_125
*1277 FILLER_0_3_137
*1278 FILLER_0_3_149
*1279 FILLER_0_3_15
*1280 FILLER_0_3_161
*1281 FILLER_0_3_167
*1282 FILLER_0_3_169
*1283 FILLER_0_3_181
*1284 FILLER_0_3_193
*1285 FILLER_0_3_205
*1286 FILLER_0_3_217
*1287 FILLER_0_3_223
*1288 FILLER_0_3_225
*1289 FILLER_0_3_237
*1290 FILLER_0_3_249
*1291 FILLER_0_3_261
*1292 FILLER_0_3_27
*1293 FILLER_0_3_273
*1294 FILLER_0_3_279
*1295 FILLER_0_3_281
*1296 FILLER_0_3_293
*1297 FILLER_0_3_3
*1298 FILLER_0_3_305
*1299 FILLER_0_3_317
*1300 FILLER_0_3_329
*1301 FILLER_0_3_335
*1302 FILLER_0_3_337
*1303 FILLER_0_3_349
*1304 FILLER_0_3_39
*1305 FILLER_0_3_51
*1306 FILLER_0_3_55
*1307 FILLER_0_3_57
*1308 FILLER_0_3_69
*1309 FILLER_0_3_81
*1310 FILLER_0_3_93
*1311 FILLER_0_4_109
*1312 FILLER_0_4_121
*1313 FILLER_0_4_133
*1314 FILLER_0_4_139
*1315 FILLER_0_4_141
*1316 FILLER_0_4_15
*1317 FILLER_0_4_153
*1318 FILLER_0_4_165
*1319 FILLER_0_4_177
*1320 FILLER_0_4_189
*1321 FILLER_0_4_195
*1322 FILLER_0_4_197
*1323 FILLER_0_4_209
*1324 FILLER_0_4_221
*1325 FILLER_0_4_233
*1326 FILLER_0_4_245
*1327 FILLER_0_4_251
*1328 FILLER_0_4_253
*1329 FILLER_0_4_265
*1330 FILLER_0_4_27
*1331 FILLER_0_4_277
*1332 FILLER_0_4_289
*1333 FILLER_0_4_29
*1334 FILLER_0_4_3
*1335 FILLER_0_4_301
*1336 FILLER_0_4_307
*1337 FILLER_0_4_309
*1338 FILLER_0_4_321
*1339 FILLER_0_4_333
*1340 FILLER_0_4_345
*1341 FILLER_0_4_41
*1342 FILLER_0_4_53
*1343 FILLER_0_4_65
*1344 FILLER_0_4_77
*1345 FILLER_0_4_83
*1346 FILLER_0_4_85
*1347 FILLER_0_4_97
*1348 FILLER_0_5_105
*1349 FILLER_0_5_111
*1350 FILLER_0_5_113
*1351 FILLER_0_5_125
*1352 FILLER_0_5_137
*1353 FILLER_0_5_149
*1354 FILLER_0_5_15
*1355 FILLER_0_5_161
*1356 FILLER_0_5_167
*1357 FILLER_0_5_169
*1358 FILLER_0_5_181
*1359 FILLER_0_5_193
*1360 FILLER_0_5_205
*1361 FILLER_0_5_217
*1362 FILLER_0_5_223
*1363 FILLER_0_5_225
*1364 FILLER_0_5_237
*1365 FILLER_0_5_249
*1366 FILLER_0_5_261
*1367 FILLER_0_5_27
*1368 FILLER_0_5_273
*1369 FILLER_0_5_279
*1370 FILLER_0_5_281
*1371 FILLER_0_5_293
*1372 FILLER_0_5_3
*1373 FILLER_0_5_305
*1374 FILLER_0_5_317
*1375 FILLER_0_5_329
*1376 FILLER_0_5_335
*1377 FILLER_0_5_337
*1378 FILLER_0_5_349
*1379 FILLER_0_5_39
*1380 FILLER_0_5_51
*1381 FILLER_0_5_55
*1382 FILLER_0_5_57
*1383 FILLER_0_5_69
*1384 FILLER_0_5_81
*1385 FILLER_0_5_93
*1386 FILLER_0_6_109
*1387 FILLER_0_6_121
*1388 FILLER_0_6_133
*1389 FILLER_0_6_139
*1390 FILLER_0_6_141
*1391 FILLER_0_6_15
*1392 FILLER_0_6_153
*1393 FILLER_0_6_165
*1394 FILLER_0_6_177
*1395 FILLER_0_6_189
*1396 FILLER_0_6_195
*1397 FILLER_0_6_197
*1398 FILLER_0_6_209
*1399 FILLER_0_6_221
*1400 FILLER_0_6_233
*1401 FILLER_0_6_245
*1402 FILLER_0_6_251
*1403 FILLER_0_6_253
*1404 FILLER_0_6_265
*1405 FILLER_0_6_27
*1406 FILLER_0_6_277
*1407 FILLER_0_6_289
*1408 FILLER_0_6_29
*1409 FILLER_0_6_3
*1410 FILLER_0_6_301
*1411 FILLER_0_6_307
*1412 FILLER_0_6_309
*1413 FILLER_0_6_321
*1414 FILLER_0_6_333
*1415 FILLER_0_6_345
*1416 FILLER_0_6_41
*1417 FILLER_0_6_53
*1418 FILLER_0_6_65
*1419 FILLER_0_6_77
*1420 FILLER_0_6_83
*1421 FILLER_0_6_85
*1422 FILLER_0_6_97
*1423 FILLER_0_7_105
*1424 FILLER_0_7_111
*1425 FILLER_0_7_113
*1426 FILLER_0_7_125
*1427 FILLER_0_7_137
*1428 FILLER_0_7_149
*1429 FILLER_0_7_15
*1430 FILLER_0_7_161
*1431 FILLER_0_7_167
*1432 FILLER_0_7_169
*1433 FILLER_0_7_181
*1434 FILLER_0_7_193
*1435 FILLER_0_7_205
*1436 FILLER_0_7_217
*1437 FILLER_0_7_223
*1438 FILLER_0_7_225
*1439 FILLER_0_7_237
*1440 FILLER_0_7_249
*1441 FILLER_0_7_261
*1442 FILLER_0_7_27
*1443 FILLER_0_7_273
*1444 FILLER_0_7_279
*1445 FILLER_0_7_281
*1446 FILLER_0_7_293
*1447 FILLER_0_7_3
*1448 FILLER_0_7_305
*1449 FILLER_0_7_317
*1450 FILLER_0_7_329
*1451 FILLER_0_7_335
*1452 FILLER_0_7_337
*1453 FILLER_0_7_349
*1454 FILLER_0_7_39
*1455 FILLER_0_7_51
*1456 FILLER_0_7_55
*1457 FILLER_0_7_57
*1458 FILLER_0_7_69
*1459 FILLER_0_7_81
*1460 FILLER_0_7_93