*SPEF "ieee 1481-1999"
*DESIGN "tt_um_wokwi_380409393770716161"
*DATE "11:11:11 Fri 11 11, 1111"
*VENDOR "OpenRCX"
*PROGRAM "Parallel Extraction"
*VERSION "1.0"
*DESIGN_FLOW "NAME_SCOPE LOCAL" "PIN_CAP NONE"
*DIVIDER /
*DELIMITER :
*BUS_DELIMITER []
*T_UNIT 1 NS
*C_UNIT 1 PF
*R_UNIT 1 OHM
*L_UNIT 1 HENRY

*NAME_MAP
*3 clk
*4 ena
*5 rst_n
*6 ui_in[0]
*7 ui_in[1]
*8 ui_in[2]
*9 ui_in[3]
*10 ui_in[4]
*11 ui_in[5]
*12 ui_in[6]
*13 ui_in[7]
*14 uio_in[0]
*15 uio_in[1]
*16 uio_in[2]
*17 uio_in[3]
*18 uio_in[4]
*19 uio_in[5]
*20 uio_in[6]
*21 uio_in[7]
*22 net10
*23 net11
*24 net12
*25 net13
*26 net14
*27 net15
*28 net16
*29 net17
*30 net18
*31 net19
*32 net20
*33 net21
*34 net22
*35 net23
*36 net24
*37 net25
*38 uo_out[0]
*39 net26
*40 uo_out[2]
*41 uo_out[3]
*42 uo_out[4]
*43 uo_out[5]
*44 uo_out[6]
*45 uo_out[7]
*46 _00_
*47 _01_
*48 and1\.out
*49 mux1\.out
*50 net1
*51 net2
*52 net3
*53 net4
*54 net5
*55 net6
*56 net7
*57 net8
*58 net9
*59 FILLER_0_0_109
*60 FILLER_0_0_113
*61 FILLER_0_0_125
*62 FILLER_0_0_137
*63 FILLER_0_0_141
*64 FILLER_0_0_15
*65 FILLER_0_0_153
*66 FILLER_0_0_165
*67 FILLER_0_0_169
*68 FILLER_0_0_181
*69 FILLER_0_0_193
*70 FILLER_0_0_197
*71 FILLER_0_0_209
*72 FILLER_0_0_221
*73 FILLER_0_0_225
*74 FILLER_0_0_237
*75 FILLER_0_0_249
*76 FILLER_0_0_253
*77 FILLER_0_0_265
*78 FILLER_0_0_27
*79 FILLER_0_0_277
*80 FILLER_0_0_281
*81 FILLER_0_0_29
*82 FILLER_0_0_293
*83 FILLER_0_0_3
*84 FILLER_0_0_305
*85 FILLER_0_0_309
*86 FILLER_0_0_321
*87 FILLER_0_0_333
*88 FILLER_0_0_337
*89 FILLER_0_0_349
*90 FILLER_0_0_41
*91 FILLER_0_0_53
*92 FILLER_0_0_57
*93 FILLER_0_0_69
*94 FILLER_0_0_81
*95 FILLER_0_0_85
*96 FILLER_0_0_97
*97 FILLER_0_10_109
*98 FILLER_0_10_121
*99 FILLER_0_10_133
*100 FILLER_0_10_139
*101 FILLER_0_10_141
*102 FILLER_0_10_15
*103 FILLER_0_10_153
*104 FILLER_0_10_165
*105 FILLER_0_10_177
*106 FILLER_0_10_189
*107 FILLER_0_10_195
*108 FILLER_0_10_197
*109 FILLER_0_10_209
*110 FILLER_0_10_221
*111 FILLER_0_10_233
*112 FILLER_0_10_245
*113 FILLER_0_10_251
*114 FILLER_0_10_253
*115 FILLER_0_10_265
*116 FILLER_0_10_27
*117 FILLER_0_10_277
*118 FILLER_0_10_289
*119 FILLER_0_10_29
*120 FILLER_0_10_3
*121 FILLER_0_10_301
*122 FILLER_0_10_307
*123 FILLER_0_10_309
*124 FILLER_0_10_321
*125 FILLER_0_10_333
*126 FILLER_0_10_345
*127 FILLER_0_10_41
*128 FILLER_0_10_53
*129 FILLER_0_10_65
*130 FILLER_0_10_77
*131 FILLER_0_10_83
*132 FILLER_0_10_85
*133 FILLER_0_10_97
*134 FILLER_0_11_105
*135 FILLER_0_11_111
*136 FILLER_0_11_113
*137 FILLER_0_11_125
*138 FILLER_0_11_137
*139 FILLER_0_11_149
*140 FILLER_0_11_15
*141 FILLER_0_11_161
*142 FILLER_0_11_167
*143 FILLER_0_11_169
*144 FILLER_0_11_181
*145 FILLER_0_11_193
*146 FILLER_0_11_205
*147 FILLER_0_11_217
*148 FILLER_0_11_223
*149 FILLER_0_11_225
*150 FILLER_0_11_237
*151 FILLER_0_11_249
*152 FILLER_0_11_261
*153 FILLER_0_11_27
*154 FILLER_0_11_273
*155 FILLER_0_11_279
*156 FILLER_0_11_281
*157 FILLER_0_11_293
*158 FILLER_0_11_3
*159 FILLER_0_11_305
*160 FILLER_0_11_317
*161 FILLER_0_11_329
*162 FILLER_0_11_335
*163 FILLER_0_11_337
*164 FILLER_0_11_349
*165 FILLER_0_11_39
*166 FILLER_0_11_51
*167 FILLER_0_11_55
*168 FILLER_0_11_57
*169 FILLER_0_11_69
*170 FILLER_0_11_81
*171 FILLER_0_11_93
*172 FILLER_0_12_109
*173 FILLER_0_12_121
*174 FILLER_0_12_133
*175 FILLER_0_12_139
*176 FILLER_0_12_141
*177 FILLER_0_12_15
*178 FILLER_0_12_153
*179 FILLER_0_12_165
*180 FILLER_0_12_177
*181 FILLER_0_12_189
*182 FILLER_0_12_195
*183 FILLER_0_12_197
*184 FILLER_0_12_209
*185 FILLER_0_12_221
*186 FILLER_0_12_233
*187 FILLER_0_12_245
*188 FILLER_0_12_251
*189 FILLER_0_12_253
*190 FILLER_0_12_265
*191 FILLER_0_12_27
*192 FILLER_0_12_277
*193 FILLER_0_12_289
*194 FILLER_0_12_29
*195 FILLER_0_12_3
*196 FILLER_0_12_301
*197 FILLER_0_12_307
*198 FILLER_0_12_309
*199 FILLER_0_12_321
*200 FILLER_0_12_333
*201 FILLER_0_12_345
*202 FILLER_0_12_41
*203 FILLER_0_12_53
*204 FILLER_0_12_65
*205 FILLER_0_12_77
*206 FILLER_0_12_83
*207 FILLER_0_12_85
*208 FILLER_0_12_97
*209 FILLER_0_13_105
*210 FILLER_0_13_111
*211 FILLER_0_13_113
*212 FILLER_0_13_125
*213 FILLER_0_13_137
*214 FILLER_0_13_149
*215 FILLER_0_13_15
*216 FILLER_0_13_161
*217 FILLER_0_13_167
*218 FILLER_0_13_169
*219 FILLER_0_13_181
*220 FILLER_0_13_193
*221 FILLER_0_13_205
*222 FILLER_0_13_217
*223 FILLER_0_13_223
*224 FILLER_0_13_225
*225 FILLER_0_13_237
*226 FILLER_0_13_249
*227 FILLER_0_13_261
*228 FILLER_0_13_27
*229 FILLER_0_13_273
*230 FILLER_0_13_279
*231 FILLER_0_13_281
*232 FILLER_0_13_293
*233 FILLER_0_13_3
*234 FILLER_0_13_305
*235 FILLER_0_13_317
*236 FILLER_0_13_329
*237 FILLER_0_13_335
*238 FILLER_0_13_337
*239 FILLER_0_13_349
*240 FILLER_0_13_39
*241 FILLER_0_13_51
*242 FILLER_0_13_55
*243 FILLER_0_13_57
*244 FILLER_0_13_69
*245 FILLER_0_13_81
*246 FILLER_0_13_93
*247 FILLER_0_14_109
*248 FILLER_0_14_121
*249 FILLER_0_14_133
*250 FILLER_0_14_139
*251 FILLER_0_14_141
*252 FILLER_0_14_15
*253 FILLER_0_14_153
*254 FILLER_0_14_165
*255 FILLER_0_14_177
*256 FILLER_0_14_189
*257 FILLER_0_14_195
*258 FILLER_0_14_197
*259 FILLER_0_14_209
*260 FILLER_0_14_221
*261 FILLER_0_14_233
*262 FILLER_0_14_245
*263 FILLER_0_14_251
*264 FILLER_0_14_253
*265 FILLER_0_14_265
*266 FILLER_0_14_27
*267 FILLER_0_14_277
*268 FILLER_0_14_289
*269 FILLER_0_14_29
*270 FILLER_0_14_3
*271 FILLER_0_14_301
*272 FILLER_0_14_307
*273 FILLER_0_14_309
*274 FILLER_0_14_321
*275 FILLER_0_14_333
*276 FILLER_0_14_345
*277 FILLER_0_14_41
*278 FILLER_0_14_53
*279 FILLER_0_14_65
*280 FILLER_0_14_77
*281 FILLER_0_14_83
*282 FILLER_0_14_85
*283 FILLER_0_14_97
*284 FILLER_0_15_105
*285 FILLER_0_15_111
*286 FILLER_0_15_113
*287 FILLER_0_15_125
*288 FILLER_0_15_137
*289 FILLER_0_15_149
*290 FILLER_0_15_15
*291 FILLER_0_15_161
*292 FILLER_0_15_167
*293 FILLER_0_15_169
*294 FILLER_0_15_181
*295 FILLER_0_15_193
*296 FILLER_0_15_205
*297 FILLER_0_15_217
*298 FILLER_0_15_223
*299 FILLER_0_15_225
*300 FILLER_0_15_237
*301 FILLER_0_15_249
*302 FILLER_0_15_261
*303 FILLER_0_15_27
*304 FILLER_0_15_273
*305 FILLER_0_15_279
*306 FILLER_0_15_281
*307 FILLER_0_15_293
*308 FILLER_0_15_3
*309 FILLER_0_15_305
*310 FILLER_0_15_317
*311 FILLER_0_15_329
*312 FILLER_0_15_335
*313 FILLER_0_15_337
*314 FILLER_0_15_349
*315 FILLER_0_15_39
*316 FILLER_0_15_51
*317 FILLER_0_15_55
*318 FILLER_0_15_57
*319 FILLER_0_15_69
*320 FILLER_0_15_81
*321 FILLER_0_15_93
*322 FILLER_0_16_109
*323 FILLER_0_16_121
*324 FILLER_0_16_133
*325 FILLER_0_16_139
*326 FILLER_0_16_141
*327 FILLER_0_16_15
*328 FILLER_0_16_153
*329 FILLER_0_16_165
*330 FILLER_0_16_177
*331 FILLER_0_16_189
*332 FILLER_0_16_195
*333 FILLER_0_16_197
*334 FILLER_0_16_209
*335 FILLER_0_16_221
*336 FILLER_0_16_233
*337 FILLER_0_16_245
*338 FILLER_0_16_251
*339 FILLER_0_16_253
*340 FILLER_0_16_265
*341 FILLER_0_16_27
*342 FILLER_0_16_277
*343 FILLER_0_16_289
*344 FILLER_0_16_29
*345 FILLER_0_16_3
*346 FILLER_0_16_301
*347 FILLER_0_16_307
*348 FILLER_0_16_309
*349 FILLER_0_16_321
*350 FILLER_0_16_333
*351 FILLER_0_16_345
*352 FILLER_0_16_41
*353 FILLER_0_16_53
*354 FILLER_0_16_65
*355 FILLER_0_16_77
*356 FILLER_0_16_83
*357 FILLER_0_16_85
*358 FILLER_0_16_97
*359 FILLER_0_17_105
*360 FILLER_0_17_111
*361 FILLER_0_17_113
*362 FILLER_0_17_125
*363 FILLER_0_17_137
*364 FILLER_0_17_149
*365 FILLER_0_17_15
*366 FILLER_0_17_161
*367 FILLER_0_17_167
*368 FILLER_0_17_169
*369 FILLER_0_17_181
*370 FILLER_0_17_193
*371 FILLER_0_17_205
*372 FILLER_0_17_217
*373 FILLER_0_17_223
*374 FILLER_0_17_225
*375 FILLER_0_17_237
*376 FILLER_0_17_249
*377 FILLER_0_17_261
*378 FILLER_0_17_27
*379 FILLER_0_17_273
*380 FILLER_0_17_279
*381 FILLER_0_17_281
*382 FILLER_0_17_293
*383 FILLER_0_17_3
*384 FILLER_0_17_305
*385 FILLER_0_17_317
*386 FILLER_0_17_329
*387 FILLER_0_17_335
*388 FILLER_0_17_337
*389 FILLER_0_17_349
*390 FILLER_0_17_39
*391 FILLER_0_17_51
*392 FILLER_0_17_55
*393 FILLER_0_17_57
*394 FILLER_0_17_69
*395 FILLER_0_17_81
*396 FILLER_0_17_93
*397 FILLER_0_18_109
*398 FILLER_0_18_121
*399 FILLER_0_18_133
*400 FILLER_0_18_139
*401 FILLER_0_18_141
*402 FILLER_0_18_15
*403 FILLER_0_18_153
*404 FILLER_0_18_165
*405 FILLER_0_18_177
*406 FILLER_0_18_189
*407 FILLER_0_18_195
*408 FILLER_0_18_197
*409 FILLER_0_18_209
*410 FILLER_0_18_221
*411 FILLER_0_18_233
*412 FILLER_0_18_245
*413 FILLER_0_18_251
*414 FILLER_0_18_253
*415 FILLER_0_18_265
*416 FILLER_0_18_27
*417 FILLER_0_18_277
*418 FILLER_0_18_289
*419 FILLER_0_18_29
*420 FILLER_0_18_3
*421 FILLER_0_18_301
*422 FILLER_0_18_307
*423 FILLER_0_18_309
*424 FILLER_0_18_321
*425 FILLER_0_18_333
*426 FILLER_0_18_345
*427 FILLER_0_18_41
*428 FILLER_0_18_53
*429 FILLER_0_18_65
*430 FILLER_0_18_77
*431 FILLER_0_18_83
*432 FILLER_0_18_85
*433 FILLER_0_18_97
*434 FILLER_0_19_105
*435 FILLER_0_19_111
*436 FILLER_0_19_113
*437 FILLER_0_19_125
*438 FILLER_0_19_137
*439 FILLER_0_19_149
*440 FILLER_0_19_15
*441 FILLER_0_19_161
*442 FILLER_0_19_167
*443 FILLER_0_19_169
*444 FILLER_0_19_181
*445 FILLER_0_19_193
*446 FILLER_0_19_205
*447 FILLER_0_19_217
*448 FILLER_0_19_223
*449 FILLER_0_19_225
*450 FILLER_0_19_237
*451 FILLER_0_19_249
*452 FILLER_0_19_261
*453 FILLER_0_19_27
*454 FILLER_0_19_273
*455 FILLER_0_19_279
*456 FILLER_0_19_281
*457 FILLER_0_19_293
*458 FILLER_0_19_3
*459 FILLER_0_19_305
*460 FILLER_0_19_317
*461 FILLER_0_19_329
*462 FILLER_0_19_335
*463 FILLER_0_19_337
*464 FILLER_0_19_349
*465 FILLER_0_19_39
*466 FILLER_0_19_51
*467 FILLER_0_19_55
*468 FILLER_0_19_57
*469 FILLER_0_19_69
*470 FILLER_0_19_81
*471 FILLER_0_19_93
*472 FILLER_0_1_105
*473 FILLER_0_1_111
*474 FILLER_0_1_113
*475 FILLER_0_1_125
*476 FILLER_0_1_137
*477 FILLER_0_1_149
*478 FILLER_0_1_15
*479 FILLER_0_1_161
*480 FILLER_0_1_167
*481 FILLER_0_1_169
*482 FILLER_0_1_181
*483 FILLER_0_1_193
*484 FILLER_0_1_205
*485 FILLER_0_1_217
*486 FILLER_0_1_223
*487 FILLER_0_1_225
*488 FILLER_0_1_237
*489 FILLER_0_1_249
*490 FILLER_0_1_261
*491 FILLER_0_1_27
*492 FILLER_0_1_273
*493 FILLER_0_1_279
*494 FILLER_0_1_281
*495 FILLER_0_1_293
*496 FILLER_0_1_3
*497 FILLER_0_1_305
*498 FILLER_0_1_317
*499 FILLER_0_1_329
*500 FILLER_0_1_335
*501 FILLER_0_1_337
*502 FILLER_0_1_349
*503 FILLER_0_1_39
*504 FILLER_0_1_51
*505 FILLER_0_1_55
*506 FILLER_0_1_57
*507 FILLER_0_1_69
*508 FILLER_0_1_81
*509 FILLER_0_1_93
*510 FILLER_0_20_109
*511 FILLER_0_20_121
*512 FILLER_0_20_133
*513 FILLER_0_20_139
*514 FILLER_0_20_141
*515 FILLER_0_20_15
*516 FILLER_0_20_153
*517 FILLER_0_20_165
*518 FILLER_0_20_177
*519 FILLER_0_20_189
*520 FILLER_0_20_195
*521 FILLER_0_20_197
*522 FILLER_0_20_209
*523 FILLER_0_20_221
*524 FILLER_0_20_233
*525 FILLER_0_20_245
*526 FILLER_0_20_251
*527 FILLER_0_20_253
*528 FILLER_0_20_265
*529 FILLER_0_20_27
*530 FILLER_0_20_277
*531 FILLER_0_20_289
*532 FILLER_0_20_29
*533 FILLER_0_20_3
*534 FILLER_0_20_301
*535 FILLER_0_20_307
*536 FILLER_0_20_309
*537 FILLER_0_20_321
*538 FILLER_0_20_333
*539 FILLER_0_20_345
*540 FILLER_0_20_41
*541 FILLER_0_20_53
*542 FILLER_0_20_65
*543 FILLER_0_20_77
*544 FILLER_0_20_83
*545 FILLER_0_20_85
*546 FILLER_0_20_97
*547 FILLER_0_21_105
*548 FILLER_0_21_111
*549 FILLER_0_21_113
*550 FILLER_0_21_125
*551 FILLER_0_21_137
*552 FILLER_0_21_149
*553 FILLER_0_21_15
*554 FILLER_0_21_161
*555 FILLER_0_21_167
*556 FILLER_0_21_169
*557 FILLER_0_21_181
*558 FILLER_0_21_193
*559 FILLER_0_21_205
*560 FILLER_0_21_217
*561 FILLER_0_21_223
*562 FILLER_0_21_225
*563 FILLER_0_21_237
*564 FILLER_0_21_249
*565 FILLER_0_21_261
*566 FILLER_0_21_27
*567 FILLER_0_21_273
*568 FILLER_0_21_279
*569 FILLER_0_21_281
*570 FILLER_0_21_293
*571 FILLER_0_21_3
*572 FILLER_0_21_305
*573 FILLER_0_21_317
*574 FILLER_0_21_329
*575 FILLER_0_21_335
*576 FILLER_0_21_337
*577 FILLER_0_21_349
*578 FILLER_0_21_39
*579 FILLER_0_21_51
*580 FILLER_0_21_55
*581 FILLER_0_21_57
*582 FILLER_0_21_69
*583 FILLER_0_21_81
*584 FILLER_0_21_93
*585 FILLER_0_22_109
*586 FILLER_0_22_121
*587 FILLER_0_22_133
*588 FILLER_0_22_139
*589 FILLER_0_22_141
*590 FILLER_0_22_15
*591 FILLER_0_22_153
*592 FILLER_0_22_165
*593 FILLER_0_22_177
*594 FILLER_0_22_189
*595 FILLER_0_22_195
*596 FILLER_0_22_197
*597 FILLER_0_22_209
*598 FILLER_0_22_221
*599 FILLER_0_22_233
*600 FILLER_0_22_245
*601 FILLER_0_22_251
*602 FILLER_0_22_253
*603 FILLER_0_22_265
*604 FILLER_0_22_27
*605 FILLER_0_22_277
*606 FILLER_0_22_289
*607 FILLER_0_22_29
*608 FILLER_0_22_3
*609 FILLER_0_22_301
*610 FILLER_0_22_307
*611 FILLER_0_22_309
*612 FILLER_0_22_321
*613 FILLER_0_22_333
*614 FILLER_0_22_345
*615 FILLER_0_22_41
*616 FILLER_0_22_53
*617 FILLER_0_22_65
*618 FILLER_0_22_77
*619 FILLER_0_22_83
*620 FILLER_0_22_85
*621 FILLER_0_22_97
*622 FILLER_0_23_105
*623 FILLER_0_23_111
*624 FILLER_0_23_113
*625 FILLER_0_23_125
*626 FILLER_0_23_137
*627 FILLER_0_23_149
*628 FILLER_0_23_15
*629 FILLER_0_23_161
*630 FILLER_0_23_167
*631 FILLER_0_23_169
*632 FILLER_0_23_181
*633 FILLER_0_23_193
*634 FILLER_0_23_205
*635 FILLER_0_23_217
*636 FILLER_0_23_223
*637 FILLER_0_23_225
*638 FILLER_0_23_237
*639 FILLER_0_23_249
*640 FILLER_0_23_261
*641 FILLER_0_23_27
*642 FILLER_0_23_273
*643 FILLER_0_23_279
*644 FILLER_0_23_281
*645 FILLER_0_23_293
*646 FILLER_0_23_3
*647 FILLER_0_23_305
*648 FILLER_0_23_317
*649 FILLER_0_23_329
*650 FILLER_0_23_335
*651 FILLER_0_23_337
*652 FILLER_0_23_349
*653 FILLER_0_23_39
*654 FILLER_0_23_51
*655 FILLER_0_23_55
*656 FILLER_0_23_57
*657 FILLER_0_23_69
*658 FILLER_0_23_81
*659 FILLER_0_23_93
*660 FILLER_0_24_109
*661 FILLER_0_24_121
*662 FILLER_0_24_133
*663 FILLER_0_24_139
*664 FILLER_0_24_141
*665 FILLER_0_24_15
*666 FILLER_0_24_153
*667 FILLER_0_24_165
*668 FILLER_0_24_177
*669 FILLER_0_24_189
*670 FILLER_0_24_195
*671 FILLER_0_24_197
*672 FILLER_0_24_209
*673 FILLER_0_24_221
*674 FILLER_0_24_233
*675 FILLER_0_24_245
*676 FILLER_0_24_251
*677 FILLER_0_24_253
*678 FILLER_0_24_265
*679 FILLER_0_24_27
*680 FILLER_0_24_277
*681 FILLER_0_24_289
*682 FILLER_0_24_29
*683 FILLER_0_24_3
*684 FILLER_0_24_301
*685 FILLER_0_24_307
*686 FILLER_0_24_309
*687 FILLER_0_24_321
*688 FILLER_0_24_333
*689 FILLER_0_24_345
*690 FILLER_0_24_41
*691 FILLER_0_24_53
*692 FILLER_0_24_65
*693 FILLER_0_24_77
*694 FILLER_0_24_83
*695 FILLER_0_24_85
*696 FILLER_0_24_97
*697 FILLER_0_25_105
*698 FILLER_0_25_111
*699 FILLER_0_25_113
*700 FILLER_0_25_125
*701 FILLER_0_25_137
*702 FILLER_0_25_149
*703 FILLER_0_25_15
*704 FILLER_0_25_161
*705 FILLER_0_25_167
*706 FILLER_0_25_169
*707 FILLER_0_25_181
*708 FILLER_0_25_193
*709 FILLER_0_25_205
*710 FILLER_0_25_217
*711 FILLER_0_25_223
*712 FILLER_0_25_225
*713 FILLER_0_25_237
*714 FILLER_0_25_249
*715 FILLER_0_25_261
*716 FILLER_0_25_27
*717 FILLER_0_25_273
*718 FILLER_0_25_279
*719 FILLER_0_25_281
*720 FILLER_0_25_293
*721 FILLER_0_25_3
*722 FILLER_0_25_305
*723 FILLER_0_25_317
*724 FILLER_0_25_329
*725 FILLER_0_25_335
*726 FILLER_0_25_337
*727 FILLER_0_25_349
*728 FILLER_0_25_39
*729 FILLER_0_25_51
*730 FILLER_0_25_55
*731 FILLER_0_25_57
*732 FILLER_0_25_69
*733 FILLER_0_25_81
*734 FILLER_0_25_93
*735 FILLER_0_26_109
*736 FILLER_0_26_121
*737 FILLER_0_26_133
*738 FILLER_0_26_139
*739 FILLER_0_26_141
*740 FILLER_0_26_15
*741 FILLER_0_26_153
*742 FILLER_0_26_165
*743 FILLER_0_26_177
*744 FILLER_0_26_189
*745 FILLER_0_26_195
*746 FILLER_0_26_197
*747 FILLER_0_26_209
*748 FILLER_0_26_221
*749 FILLER_0_26_233
*750 FILLER_0_26_245
*751 FILLER_0_26_251
*752 FILLER_0_26_253
*753 FILLER_0_26_265
*754 FILLER_0_26_27
*755 FILLER_0_26_277
*756 FILLER_0_26_289
*757 FILLER_0_26_29
*758 FILLER_0_26_3
*759 FILLER_0_26_301
*760 FILLER_0_26_307
*761 FILLER_0_26_309
*762 FILLER_0_26_321
*763 FILLER_0_26_333
*764 FILLER_0_26_345
*765 FILLER_0_26_41
*766 FILLER_0_26_53
*767 FILLER_0_26_65
*768 FILLER_0_26_77
*769 FILLER_0_26_83
*770 FILLER_0_26_85
*771 FILLER_0_26_97
*772 FILLER_0_27_105
*773 FILLER_0_27_111
*774 FILLER_0_27_113
*775 FILLER_0_27_125
*776 FILLER_0_27_137
*777 FILLER_0_27_149
*778 FILLER_0_27_15
*779 FILLER_0_27_161
*780 FILLER_0_27_167
*781 FILLER_0_27_169
*782 FILLER_0_27_181
*783 FILLER_0_27_193
*784 FILLER_0_27_205
*785 FILLER_0_27_217
*786 FILLER_0_27_223
*787 FILLER_0_27_225
*788 FILLER_0_27_237
*789 FILLER_0_27_249
*790 FILLER_0_27_261
*791 FILLER_0_27_27
*792 FILLER_0_27_273
*793 FILLER_0_27_279
*794 FILLER_0_27_281
*795 FILLER_0_27_293
*796 FILLER_0_27_3
*797 FILLER_0_27_305
*798 FILLER_0_27_317
*799 FILLER_0_27_329
*800 FILLER_0_27_335
*801 FILLER_0_27_337
*802 FILLER_0_27_349
*803 FILLER_0_27_39
*804 FILLER_0_27_51
*805 FILLER_0_27_55
*806 FILLER_0_27_57
*807 FILLER_0_27_69
*808 FILLER_0_27_81
*809 FILLER_0_27_93
*810 FILLER_0_28_109
*811 FILLER_0_28_121
*812 FILLER_0_28_133
*813 FILLER_0_28_139
*814 FILLER_0_28_141
*815 FILLER_0_28_15
*816 FILLER_0_28_153
*817 FILLER_0_28_165
*818 FILLER_0_28_177
*819 FILLER_0_28_189
*820 FILLER_0_28_195
*821 FILLER_0_28_197
*822 FILLER_0_28_209
*823 FILLER_0_28_221
*824 FILLER_0_28_233
*825 FILLER_0_28_245
*826 FILLER_0_28_251
*827 FILLER_0_28_253
*828 FILLER_0_28_265
*829 FILLER_0_28_27
*830 FILLER_0_28_277
*831 FILLER_0_28_289
*832 FILLER_0_28_29
*833 FILLER_0_28_3
*834 FILLER_0_28_301
*835 FILLER_0_28_307
*836 FILLER_0_28_309
*837 FILLER_0_28_321
*838 FILLER_0_28_333
*839 FILLER_0_28_345
*840 FILLER_0_28_41
*841 FILLER_0_28_53
*842 FILLER_0_28_65
*843 FILLER_0_28_77
*844 FILLER_0_28_83
*845 FILLER_0_28_85
*846 FILLER_0_28_97
*847 FILLER_0_29_105
*848 FILLER_0_29_111
*849 FILLER_0_29_113
*850 FILLER_0_29_125
*851 FILLER_0_29_137
*852 FILLER_0_29_149
*853 FILLER_0_29_15
*854 FILLER_0_29_161
*855 FILLER_0_29_167
*856 FILLER_0_29_169
*857 FILLER_0_29_181
*858 FILLER_0_29_193
*859 FILLER_0_29_205
*860 FILLER_0_29_217
*861 FILLER_0_29_223
*862 FILLER_0_29_225
*863 FILLER_0_29_237
*864 FILLER_0_29_249
*865 FILLER_0_29_261
*866 FILLER_0_29_27
*867 FILLER_0_29_273
*868 FILLER_0_29_279
*869 FILLER_0_29_281
*870 FILLER_0_29_293
*871 FILLER_0_29_3
*872 FILLER_0_29_305
*873 FILLER_0_29_317
*874 FILLER_0_29_329
*875 FILLER_0_29_335
*876 FILLER_0_29_337
*877 FILLER_0_29_349
*878 FILLER_0_29_39
*879 FILLER_0_29_51
*880 FILLER_0_29_55
*881 FILLER_0_29_57
*882 FILLER_0_29_69
*883 FILLER_0_29_81
*884 FILLER_0_29_93
*885 FILLER_0_2_109
*886 FILLER_0_2_121
*887 FILLER_0_2_133
*888 FILLER_0_2_139
*889 FILLER_0_2_141
*890 FILLER_0_2_15
*891 FILLER_0_2_153
*892 FILLER_0_2_165
*893 FILLER_0_2_177
*894 FILLER_0_2_189
*895 FILLER_0_2_195
*896 FILLER_0_2_197
*897 FILLER_0_2_209
*898 FILLER_0_2_221
*899 FILLER_0_2_233
*900 FILLER_0_2_245
*901 FILLER_0_2_251
*902 FILLER_0_2_253
*903 FILLER_0_2_265
*904 FILLER_0_2_27
*905 FILLER_0_2_277
*906 FILLER_0_2_289
*907 FILLER_0_2_29
*908 FILLER_0_2_3
*909 FILLER_0_2_301
*910 FILLER_0_2_307
*911 FILLER_0_2_309
*912 FILLER_0_2_321
*913 FILLER_0_2_333
*914 FILLER_0_2_345
*915 FILLER_0_2_41
*916 FILLER_0_2_53
*917 FILLER_0_2_65
*918 FILLER_0_2_77
*919 FILLER_0_2_83
*920 FILLER_0_2_85
*921 FILLER_0_2_97
*922 FILLER_0_30_109
*923 FILLER_0_30_121
*924 FILLER_0_30_133
*925 FILLER_0_30_139
*926 FILLER_0_30_141
*927 FILLER_0_30_15
*928 FILLER_0_30_153
*929 FILLER_0_30_165
*930 FILLER_0_30_177
*931 FILLER_0_30_189
*932 FILLER_0_30_195
*933 FILLER_0_30_197
*934 FILLER_0_30_209
*935 FILLER_0_30_221
*936 FILLER_0_30_233
*937 FILLER_0_30_245
*938 FILLER_0_30_251
*939 FILLER_0_30_253
*940 FILLER_0_30_265
*941 FILLER_0_30_27
*942 FILLER_0_30_277
*943 FILLER_0_30_289
*944 FILLER_0_30_29
*945 FILLER_0_30_3
*946 FILLER_0_30_301
*947 FILLER_0_30_307
*948 FILLER_0_30_309
*949 FILLER_0_30_321
*950 FILLER_0_30_333
*951 FILLER_0_30_345
*952 FILLER_0_30_41
*953 FILLER_0_30_53
*954 FILLER_0_30_65
*955 FILLER_0_30_77
*956 FILLER_0_30_83
*957 FILLER_0_30_85
*958 FILLER_0_30_97
*959 FILLER_0_31_105
*960 FILLER_0_31_111
*961 FILLER_0_31_113
*962 FILLER_0_31_125
*963 FILLER_0_31_137
*964 FILLER_0_31_149
*965 FILLER_0_31_15
*966 FILLER_0_31_161
*967 FILLER_0_31_167
*968 FILLER_0_31_169
*969 FILLER_0_31_181
*970 FILLER_0_31_193
*971 FILLER_0_31_205
*972 FILLER_0_31_217
*973 FILLER_0_31_223
*974 FILLER_0_31_225
*975 FILLER_0_31_237
*976 FILLER_0_31_249
*977 FILLER_0_31_261
*978 FILLER_0_31_27
*979 FILLER_0_31_273
*980 FILLER_0_31_279
*981 FILLER_0_31_281
*982 FILLER_0_31_293
*983 FILLER_0_31_3
*984 FILLER_0_31_305
*985 FILLER_0_31_317
*986 FILLER_0_31_329
*987 FILLER_0_31_335
*988 FILLER_0_31_337
*989 FILLER_0_31_349
*990 FILLER_0_31_39
*991 FILLER_0_31_51
*992 FILLER_0_31_55
*993 FILLER_0_31_57
*994 FILLER_0_31_69
*995 FILLER_0_31_81
*996 FILLER_0_31_93
*997 FILLER_0_32_109
*998 FILLER_0_32_121
*999 FILLER_0_32_133
*1000 FILLER_0_32_139
*1001 FILLER_0_32_141
*1002 FILLER_0_32_15
*1003 FILLER_0_32_153
*1004 FILLER_0_32_165
*1005 FILLER_0_32_177
*1006 FILLER_0_32_189
*1007 FILLER_0_32_195
*1008 FILLER_0_32_197
*1009 FILLER_0_32_209
*1010 FILLER_0_32_221
*1011 FILLER_0_32_233
*1012 FILLER_0_32_245
*1013 FILLER_0_32_251
*1014 FILLER_0_32_253
*1015 FILLER_0_32_265
*1016 FILLER_0_32_27
*1017 FILLER_0_32_277
*1018 FILLER_0_32_289
*1019 FILLER_0_32_29
*1020 FILLER_0_32_3
*1021 FILLER_0_32_301
*1022 FILLER_0_32_307
*1023 FILLER_0_32_309
*1024 FILLER_0_32_321
*1025 FILLER_0_32_333
*1026 FILLER_0_32_345
*1027 FILLER_0_32_41
*1028 FILLER_0_32_53
*1029 FILLER_0_32_65
*1030 FILLER_0_32_77
*1031 FILLER_0_32_83
*1032 FILLER_0_32_85
*1033 FILLER_0_32_97
*1034 FILLER_0_33_105
*1035 FILLER_0_33_111
*1036 FILLER_0_33_113
*1037 FILLER_0_33_125
*1038 FILLER_0_33_137
*1039 FILLER_0_33_149
*1040 FILLER_0_33_15
*1041 FILLER_0_33_161
*1042 FILLER_0_33_167
*1043 FILLER_0_33_169
*1044 FILLER_0_33_181
*1045 FILLER_0_33_193
*1046 FILLER_0_33_205
*1047 FILLER_0_33_217
*1048 FILLER_0_33_223
*1049 FILLER_0_33_225
*1050 FILLER_0_33_237
*1051 FILLER_0_33_249
*1052 FILLER_0_33_261
*1053 FILLER_0_33_27
*1054 FILLER_0_33_273
*1055 FILLER_0_33_279
*1056 FILLER_0_33_281
*1057 FILLER_0_33_293
*1058 FILLER_0_33_3
*1059 FILLER_0_33_305
*1060 FILLER_0_33_317
*1061 FILLER_0_33_329
*1062 FILLER_0_33_335
*1063 FILLER_0_33_337
*1064 FILLER_0_33_349
*1065 FILLER_0_33_39
*1066 FILLER_0_33_51
*1067 FILLER_0_33_55
*1068 FILLER_0_33_57
*1069 FILLER_0_33_69
*1070 FILLER_0_33_81
*1071 FILLER_0_33_93
*1072 FILLER_0_34_109
*1073 FILLER_0_34_121
*1074 FILLER_0_34_133
*1075 FILLER_0_34_139
*1076 FILLER_0_34_141
*1077 FILLER_0_34_15
*1078 FILLER_0_34_153
*1079 FILLER_0_34_165
*1080 FILLER_0_34_177
*1081 FILLER_0_34_189
*1082 FILLER_0_34_195
*1083 FILLER_0_34_197
*1084 FILLER_0_34_209
*1085 FILLER_0_34_221
*1086 FILLER_0_34_233
*1087 FILLER_0_34_245
*1088 FILLER_0_34_251
*1089 FILLER_0_34_253
*1090 FILLER_0_34_265
*1091 FILLER_0_34_27
*1092 FILLER_0_34_277
*1093 FILLER_0_34_289
*1094 FILLER_0_34_29
*1095 FILLER_0_34_3
*1096 FILLER_0_34_301
*1097 FILLER_0_34_307
*1098 FILLER_0_34_309
*1099 FILLER_0_34_321
*1100 FILLER_0_34_333
*1101 FILLER_0_34_345
*1102 FILLER_0_34_41
*1103 FILLER_0_34_53
*1104 FILLER_0_34_65
*1105 FILLER_0_34_77
*1106 FILLER_0_34_83
*1107 FILLER_0_34_85
*1108 FILLER_0_34_97
*1109 FILLER_0_35_105
*1110 FILLER_0_35_111
*1111 FILLER_0_35_113
*1112 FILLER_0_35_125
*1113 FILLER_0_35_137
*1114 FILLER_0_35_149
*1115 FILLER_0_35_15
*1116 FILLER_0_35_161
*1117 FILLER_0_35_167
*1118 FILLER_0_35_169
*1119 FILLER_0_35_181
*1120 FILLER_0_35_193
*1121 FILLER_0_35_205
*1122 FILLER_0_35_217
*1123 FILLER_0_35_223
*1124 FILLER_0_35_225
*1125 FILLER_0_35_237
*1126 FILLER_0_35_249
*1127 FILLER_0_35_261
*1128 FILLER_0_35_27
*1129 FILLER_0_35_273
*1130 FILLER_0_35_279
*1131 FILLER_0_35_281
*1132 FILLER_0_35_293
*1133 FILLER_0_35_3
*1134 FILLER_0_35_305
*1135 FILLER_0_35_317
*1136 FILLER_0_35_329
*1137 FILLER_0_35_335
*1138 FILLER_0_35_337
*1139 FILLER_0_35_349
*1140 FILLER_0_35_39
*1141 FILLER_0_35_51
*1142 FILLER_0_35_55
*1143 FILLER_0_35_57
*1144 FILLER_0_35_69
*1145 FILLER_0_35_81
*1146 FILLER_0_35_93
*1147 FILLER_0_36_109
*1148 FILLER_0_36_121
*1149 FILLER_0_36_133
*1150 FILLER_0_36_139
*1151 FILLER_0_36_141
*1152 FILLER_0_36_15
*1153 FILLER_0_36_153
*1154 FILLER_0_36_165
*1155 FILLER_0_36_177
*1156 FILLER_0_36_189
*1157 FILLER_0_36_195
*1158 FILLER_0_36_197
*1159 FILLER_0_36_209
*1160 FILLER_0_36_221
*1161 FILLER_0_36_233
*1162 FILLER_0_36_245
*1163 FILLER_0_36_251
*1164 FILLER_0_36_253
*1165 FILLER_0_36_265
*1166 FILLER_0_36_27
*1167 FILLER_0_36_277
*1168 FILLER_0_36_289
*1169 FILLER_0_36_29
*1170 FILLER_0_36_3
*1171 FILLER_0_36_301
*1172 FILLER_0_36_307
*1173 FILLER_0_36_309
*1174 FILLER_0_36_321
*1175 FILLER_0_36_333
*1176 FILLER_0_36_345
*1177 FILLER_0_36_41
*1178 FILLER_0_36_53
*1179 FILLER_0_36_65
*1180 FILLER_0_36_77
*1181 FILLER_0_36_83
*1182 FILLER_0_36_85
*1183 FILLER_0_36_97
*1184 FILLER_0_37_105
*1185 FILLER_0_37_111
*1186 FILLER_0_37_113
*1187 FILLER_0_37_125
*1188 FILLER_0_37_137
*1189 FILLER_0_37_149
*1190 FILLER_0_37_15
*1191 FILLER_0_37_161
*1192 FILLER_0_37_167
*1193 FILLER_0_37_169
*1194 FILLER_0_37_181
*1195 FILLER_0_37_193
*1196 FILLER_0_37_205
*1197 FILLER_0_37_217
*1198 FILLER_0_37_223
*1199 FILLER_0_37_225
*1200 FILLER_0_37_237
*1201 FILLER_0_37_249
*1202 FILLER_0_37_261
*1203 FILLER_0_37_27
*1204 FILLER_0_37_273
*1205 FILLER_0_37_279
*1206 FILLER_0_37_281
*1207 FILLER_0_37_290
*1208 FILLER_0_37_3
*1209 FILLER_0_37_302
*1210 FILLER_0_37_314
*1211 FILLER_0_37_326
*1212 FILLER_0_37_334
*1213 FILLER_0_37_337
*1214 FILLER_0_37_349
*1215 FILLER_0_37_39
*1216 FILLER_0_37_51
*1217 FILLER_0_37_55
*1218 FILLER_0_37_57
*1219 FILLER_0_37_69
*1220 FILLER_0_37_81
*1221 FILLER_0_37_93
*1222 FILLER_0_38_104
*1223 FILLER_0_38_110
*1224 FILLER_0_38_116
*1225 FILLER_0_38_122
*1226 FILLER_0_38_128
*1227 FILLER_0_38_134
*1228 FILLER_0_38_141
*1229 FILLER_0_38_146
*1230 FILLER_0_38_15
*1231 FILLER_0_38_152
*1232 FILLER_0_38_158
*1233 FILLER_0_38_166
*1234 FILLER_0_38_169
*1235 FILLER_0_38_181
*1236 FILLER_0_38_193
*1237 FILLER_0_38_200
*1238 FILLER_0_38_212
*1239 FILLER_0_38_220
*1240 FILLER_0_38_225
*1241 FILLER_0_38_232
*1242 FILLER_0_38_244
*1243 FILLER_0_38_248
*1244 FILLER_0_38_253
*1245 FILLER_0_38_27
*1246 FILLER_0_38_287
*1247 FILLER_0_38_29
*1248 FILLER_0_38_3
*1249 FILLER_0_38_303
*1250 FILLER_0_38_309
*1251 FILLER_0_38_321
*1252 FILLER_0_38_333
*1253 FILLER_0_38_337
*1254 FILLER_0_38_349
*1255 FILLER_0_38_41
*1256 FILLER_0_38_53
*1257 FILLER_0_38_57
*1258 FILLER_0_38_68
*1259 FILLER_0_38_74
*1260 FILLER_0_38_80
*1261 FILLER_0_38_88
*1262 FILLER_0_38_92
*1263 FILLER_0_38_98
*1264 FILLER_0_3_105
*1265 FILLER_0_3_111
*1266 FILLER_0_3_113
*1267 FILLER_0_3_125
*1268 FILLER_0_3_137
*1269 FILLER_0_3_149
*1270 FILLER_0_3_15
*1271 FILLER_0_3_161
*1272 FILLER_0_3_167
*1273 FILLER_0_3_169
*1274 FILLER_0_3_181
*1275 FILLER_0_3_193
*1276 FILLER_0_3_205
*1277 FILLER_0_3_217
*1278 FILLER_0_3_223
*1279 FILLER_0_3_225
*1280 FILLER_0_3_237
*1281 FILLER_0_3_249
*1282 FILLER_0_3_261
*1283 FILLER_0_3_27
*1284 FILLER_0_3_273
*1285 FILLER_0_3_279
*1286 FILLER_0_3_281
*1287 FILLER_0_3_293
*1288 FILLER_0_3_3
*1289 FILLER_0_3_305
*1290 FILLER_0_3_317
*1291 FILLER_0_3_329
*1292 FILLER_0_3_335
*1293 FILLER_0_3_337
*1294 FILLER_0_3_349
*1295 FILLER_0_3_39
*1296 FILLER_0_3_51
*1297 FILLER_0_3_55
*1298 FILLER_0_3_57
*1299 FILLER_0_3_69
*1300 FILLER_0_3_81
*1301 FILLER_0_3_93
*1302 FILLER_0_4_109
*1303 FILLER_0_4_121
*1304 FILLER_0_4_133
*1305 FILLER_0_4_139
*1306 FILLER_0_4_141
*1307 FILLER_0_4_15
*1308 FILLER_0_4_153
*1309 FILLER_0_4_165
*1310 FILLER_0_4_177
*1311 FILLER_0_4_189
*1312 FILLER_0_4_195
*1313 FILLER_0_4_197
*1314 FILLER_0_4_209
*1315 FILLER_0_4_221
*1316 FILLER_0_4_233
*1317 FILLER_0_4_245
*1318 FILLER_0_4_251
*1319 FILLER_0_4_253
*1320 FILLER_0_4_265
*1321 FILLER_0_4_27
*1322 FILLER_0_4_277
*1323 FILLER_0_4_289
*1324 FILLER_0_4_29
*1325 FILLER_0_4_3
*1326 FILLER_0_4_301
*1327 FILLER_0_4_307
*1328 FILLER_0_4_309
*1329 FILLER_0_4_321
*1330 FILLER_0_4_333
*1331 FILLER_0_4_345
*1332 FILLER_0_4_41
*1333 FILLER_0_4_53
*1334 FILLER_0_4_65
*1335 FILLER_0_4_77
*1336 FILLER_0_4_83
*1337 FILLER_0_4_85
*1338 FILLER_0_4_97
*1339 FILLER_0_5_105
*1340 FILLER_0_5_111
*1341 FILLER_0_5_113
*1342 FILLER_0_5_125
*1343 FILLER_0_5_137
*1344 FILLER_0_5_149
*1345 FILLER_0_5_15
*1346 FILLER_0_5_161
*1347 FILLER_0_5_167
*1348 FILLER_0_5_169
*1349 FILLER_0_5_181
*1350 FILLER_0_5_193
*1351 FILLER_0_5_205
*1352 FILLER_0_5_217
*1353 FILLER_0_5_223
*1354 FILLER_0_5_225
*1355 FILLER_0_5_237
*1356 FILLER_0_5_249
*1357 FILLER_0_5_261
*1358 FILLER_0_5_27
*1359 FILLER_0_5_273
*1360 FILLER_0_5_279
*1361 FILLER_0_5_281
*1362 FILLER_0_5_293
*1363 FILLER_0_5_3
*1364 FILLER_0_5_305
*1365 FILLER_0_5_317
*1366 FILLER_0_5_329
*1367 FILLER_0_5_335
*1368 FILLER_0_5_337
*1369 FILLER_0_5_349
*1370 FILLER_0_5_39
*1371 FILLER_0_5_51
*1372 FILLER_0_5_55
*1373 FILLER_0_5_57
*1374 FILLER_0_5_69
*1375 FILLER_0_5_81
*1376 FILLER_0_5_93
*1377 FILLER_0_6_109
*1378 FILLER_0_6_121
*1379 FILLER_0_6_133
*1380 FILLER_0_6_139
*1381 FILLER_0_6_141
*1382 FILLER_0_6_15
*1383 FILLER_0_6_153
*1384 FILLER_0_6_165
*1385 FILLER_0_6_177
*1386 FILLER_0_6_189
*1387 FILLER_0_6_195
*1388 FILLER_0_6_197
*1389 FILLER_0_6_209
*1390 FILLER_0_6_221
*1391 FILLER_0_6_233
*1392 FILLER_0_6_245
*1393 FILLER_0_6_251
*1394 FILLER_0_6_253
*1395 FILLER_0_6_265
*1396 FILLER_0_6_27
*1397 FILLER_0_6_277
*1398 FILLER_0_6_289
*1399 FILLER_0_6_29
*1400 FILLER_0_6_3
*1401 FILLER_0_6_301
*1402 FILLER_0_6_307
*1403 FILLER_0_6_309
*1404 FILLER_0_6_321
*1405 FILLER_0_6_333
*1406 FILLER_0_6_345
*1407 FILLER_0_6_41
*1408 FILLER_0_6_53
*1409 FILLER_0_6_65
*1410 FILLER_0_6_77
*1411 FILLER_0_6_83
*1412 FILLER_0_6_85
*1413 FILLER_0_6_97
*1414 FILLER_0_7_105
*1415 FILLER_0_7_111
*1416 FILLER_0_7_113
*1417 FILLER_0_7_125
*1418 FILLER_0_7_137
*1419 FILLER_0_7_149
*1420 FILLER_0_7_15
*1421 FILLER_0_7_161
*1422 FILLER_0_7_167
*1423 FILLER_0_7_169
*1424 FILLER_0_7_181
*1425 FILLER_0_7_193
*1426 FILLER_0_7_205
*1427 FILLER_0_7_217
*1428 FILLER_0_7_223
*1429 FILLER_0_7_225
*1430 FILLER_0_7_237
*1431 FILLER_0_7_249
*1432 FILLER_0_7_261
*1433 FILLER_0_7_27
*1434 FILLER_0_7_273
*1435 FILLER_0_7_279
*1436 FILLER_0_7_281
*1437 FILLER_0_7_293
*1438 FILLER_0_7_3
*1439 FILLER_0_7_305
*1440 FILLER_0_7_317
*1441 FILLER_0_7_329
*1442 FILLER_0_7_335
*1443 FILLER_0_7_337
*1444 FILLER_0_7_349
*1445 FILLER_0_7_39
*1446 FILLER_0_7_51
*1447 FILLER_0_7_55
*1448 FILLER_0_7_57
*1449 FILLER_0_7_69
*1450 FILLER_0_7_81
*1451 FILLER_0_7_93
*1452 FILLER_0_8_109
*1453 FILLER_0_8_121
*1454 FILLER_0_8_133
*1455 FILLER_0_8_139
*1456 FILLER_0_8_141