*SPEF "ieee 1481-1999"
*DESIGN "tt_um_wokwi_380409393770716161"
*DATE "11:11:11 Fri 11 11, 1111"
*VENDOR "OpenRCX"
*PROGRAM "Parallel Extraction"
*VERSION "1.0"
*DESIGN_FLOW "NAME_SCOPE LOCAL" "PIN_CAP NONE"
*DIVIDER /
*DELIMITER :
*BUS_DELIMITER []
*T_UNIT 1 NS
*C_UNIT 1 PF
*R_UNIT 1 OHM
*L_UNIT 1 HENRY

*NAME_MAP
*3 clk
*4 ena
*5 rst_n
*6 ui_in[0]
*7 ui_in[1]
*8 ui_in[2]
*9 ui_in[3]
*10 ui_in[4]
*11 ui_in[5]
*12 ui_in[6]
*13 ui_in[7]
*14 uio_in[0]
*15 uio_in[1]
*16 uio_in[2]
*17 uio_in[3]
*18 uio_in[4]
*19 uio_in[5]
*20 uio_in[6]
*21 uio_in[7]
*22 net2
*23 net3
*24 net4
*25 net5
*26 net6
*27 net7
*28 net8
*29 net9
*30 net10
*31 net11
*32 net12
*33 net13
*34 net14
*35 net15
*36 net16
*37 net17
*38 uo_out[0]
*39 uo_out[1]
*40 uo_out[2]
*41 uo_out[3]
*42 uo_out[4]
*43 uo_out[5]
*44 uo_out[6]
*45 uo_out[7]
*46 _000_
*47 _001_
*48 _002_
*49 _003_
*50 _004_
*51 _005_
*52 _006_
*53 _007_
*54 _008_
*55 _009_
*56 _010_
*57 _011_
*58 _012_
*59 _013_
*60 _014_
*61 _015_
*62 _016_
*63 _017_
*64 _018_
*65 _019_
*66 _020_
*67 _021_
*68 _022_
*69 _023_
*70 _024_
*71 _025_
*72 _026_
*73 _027_
*74 _028_
*75 _029_
*76 _030_
*77 _031_
*78 _032_
*79 _033_
*80 _034_
*81 _035_
*82 _036_
*83 _037_
*84 _038_
*85 _039_
*86 _040_
*87 _041_
*88 _042_
*89 _043_
*90 _044_
*91 _045_
*92 _046_
*93 _047_
*94 _048_
*95 _049_
*96 _050_
*97 _051_
*98 _052_
*99 _053_
*100 _054_
*101 _055_
*102 _056_
*103 _057_
*104 _058_
*105 _059_
*106 _060_
*107 _061_
*108 _062_
*109 _063_
*110 _064_
*111 _065_
*112 _066_
*113 _067_
*114 _068_
*115 _069_
*116 _070_
*117 _071_
*118 _072_
*119 _073_
*120 _074_
*121 _075_
*122 _076_
*123 _077_
*124 _078_
*125 _079_
*126 _080_
*127 _081_
*128 _082_
*129 _083_
*130 _084_
*131 _085_
*132 _086_
*133 _087_
*134 _088_
*135 _089_
*136 _090_
*137 _091_
*138 _092_
*139 _093_
*140 _094_
*141 _095_
*142 _096_
*143 _097_
*144 _098_
*145 _099_
*146 _100_
*147 _101_
*148 _102_
*149 _103_
*150 _104_
*151 _105_
*152 _106_
*153 _107_
*154 _108_
*155 _109_
*156 _110_
*157 _111_
*158 _112_
*159 _113_
*160 _114_
*161 _115_
*162 _116_
*163 _117_
*164 _118_
*165 _119_
*166 _120_
*167 bitGenerator\.blue
*168 bitGenerator\.bright
*169 bitGenerator\.green
*170 bitGenerator\.h_count\[0\]
*171 bitGenerator\.h_count\[1\]
*172 bitGenerator\.h_count\[2\]
*173 bitGenerator\.h_count\[3\]
*174 bitGenerator\.h_count\[4\]
*175 bitGenerator\.h_count\[5\]
*176 bitGenerator\.h_count\[6\]
*177 bitGenerator\.h_count\[7\]
*178 bitGenerator\.h_count\[8\]
*179 bitGenerator\.h_count\[9\]
*180 bitGenerator\.pixel_pos\[0\]
*181 bitGenerator\.pixel_pos\[2\]
*182 bitGenerator\.v_count\[0\]
*183 bitGenerator\.v_count\[1\]
*184 bitGenerator\.v_count\[2\]
*185 bitGenerator\.v_count\[3\]
*186 bitGenerator\.v_count\[4\]
*187 bitGenerator\.v_count\[5\]
*188 bitGenerator\.v_count\[6\]
*189 bitGenerator\.v_count\[7\]
*190 bitGenerator\.v_count\[8\]
*191 bitGenerator\.v_count\[9\]
*192 clknet_0_clk
*193 clknet_2_0__leaf_clk
*194 clknet_2_1__leaf_clk
*195 clknet_2_2__leaf_clk
*196 clknet_2_3__leaf_clk
*197 controller\.h_sync
*198 controller\.v_sync
*199 game\.has_updated_during_current_v_sync
*200 game\.update_pulse
*201 net1
*202 net18
*203 net19
*204 net20
*205 net21
*206 net22
*207 net23
*208 net24
*209 net25
*210 net26
*211 net27
*212 net28
*213 net29
*214 net30
*215 net31
*216 net32
*217 net33
*218 FILLER_0_0_109
*219 FILLER_0_0_113
*220 FILLER_0_0_125
*221 FILLER_0_0_137
*222 FILLER_0_0_141
*223 FILLER_0_0_15
*224 FILLER_0_0_153
*225 FILLER_0_0_165
*226 FILLER_0_0_169
*227 FILLER_0_0_181
*228 FILLER_0_0_193
*229 FILLER_0_0_197
*230 FILLER_0_0_209
*231 FILLER_0_0_221
*232 FILLER_0_0_225
*233 FILLER_0_0_237
*234 FILLER_0_0_249
*235 FILLER_0_0_253
*236 FILLER_0_0_265
*237 FILLER_0_0_27
*238 FILLER_0_0_277
*239 FILLER_0_0_281
*240 FILLER_0_0_29
*241 FILLER_0_0_293
*242 FILLER_0_0_3
*243 FILLER_0_0_305
*244 FILLER_0_0_309
*245 FILLER_0_0_321
*246 FILLER_0_0_333
*247 FILLER_0_0_337
*248 FILLER_0_0_349
*249 FILLER_0_0_41
*250 FILLER_0_0_53
*251 FILLER_0_0_57
*252 FILLER_0_0_69
*253 FILLER_0_0_81
*254 FILLER_0_0_85
*255 FILLER_0_0_97
*256 FILLER_0_10_109
*257 FILLER_0_10_121
*258 FILLER_0_10_133
*259 FILLER_0_10_139
*260 FILLER_0_10_141
*261 FILLER_0_10_15
*262 FILLER_0_10_153
*263 FILLER_0_10_165
*264 FILLER_0_10_177
*265 FILLER_0_10_189
*266 FILLER_0_10_195
*267 FILLER_0_10_197
*268 FILLER_0_10_209
*269 FILLER_0_10_221
*270 FILLER_0_10_233
*271 FILLER_0_10_245
*272 FILLER_0_10_251
*273 FILLER_0_10_253
*274 FILLER_0_10_265
*275 FILLER_0_10_27
*276 FILLER_0_10_277
*277 FILLER_0_10_289
*278 FILLER_0_10_29
*279 FILLER_0_10_3
*280 FILLER_0_10_301
*281 FILLER_0_10_307
*282 FILLER_0_10_309
*283 FILLER_0_10_321
*284 FILLER_0_10_333
*285 FILLER_0_10_345
*286 FILLER_0_10_41
*287 FILLER_0_10_53
*288 FILLER_0_10_65
*289 FILLER_0_10_77
*290 FILLER_0_10_83
*291 FILLER_0_10_85
*292 FILLER_0_10_97
*293 FILLER_0_11_105
*294 FILLER_0_11_111
*295 FILLER_0_11_113
*296 FILLER_0_11_125
*297 FILLER_0_11_137
*298 FILLER_0_11_149
*299 FILLER_0_11_15
*300 FILLER_0_11_161
*301 FILLER_0_11_167
*302 FILLER_0_11_169
*303 FILLER_0_11_181
*304 FILLER_0_11_193
*305 FILLER_0_11_205
*306 FILLER_0_11_217
*307 FILLER_0_11_223
*308 FILLER_0_11_225
*309 FILLER_0_11_237
*310 FILLER_0_11_249
*311 FILLER_0_11_261
*312 FILLER_0_11_27
*313 FILLER_0_11_273
*314 FILLER_0_11_279
*315 FILLER_0_11_281
*316 FILLER_0_11_293
*317 FILLER_0_11_3
*318 FILLER_0_11_305
*319 FILLER_0_11_317
*320 FILLER_0_11_329
*321 FILLER_0_11_335
*322 FILLER_0_11_337
*323 FILLER_0_11_349
*324 FILLER_0_11_39
*325 FILLER_0_11_51
*326 FILLER_0_11_55
*327 FILLER_0_11_57
*328 FILLER_0_11_69
*329 FILLER_0_11_81
*330 FILLER_0_11_93
*331 FILLER_0_12_109
*332 FILLER_0_12_121
*333 FILLER_0_12_133
*334 FILLER_0_12_139
*335 FILLER_0_12_141
*336 FILLER_0_12_15
*337 FILLER_0_12_153
*338 FILLER_0_12_165
*339 FILLER_0_12_177
*340 FILLER_0_12_189
*341 FILLER_0_12_195
*342 FILLER_0_12_197
*343 FILLER_0_12_209
*344 FILLER_0_12_221
*345 FILLER_0_12_233
*346 FILLER_0_12_245
*347 FILLER_0_12_251
*348 FILLER_0_12_253
*349 FILLER_0_12_265
*350 FILLER_0_12_27
*351 FILLER_0_12_277
*352 FILLER_0_12_289
*353 FILLER_0_12_29
*354 FILLER_0_12_3
*355 FILLER_0_12_301
*356 FILLER_0_12_307
*357 FILLER_0_12_309
*358 FILLER_0_12_321
*359 FILLER_0_12_333
*360 FILLER_0_12_345
*361 FILLER_0_12_41
*362 FILLER_0_12_53
*363 FILLER_0_12_65
*364 FILLER_0_12_77
*365 FILLER_0_12_83
*366 FILLER_0_12_85
*367 FILLER_0_12_97
*368 FILLER_0_13_105
*369 FILLER_0_13_111
*370 FILLER_0_13_113
*371 FILLER_0_13_125
*372 FILLER_0_13_137
*373 FILLER_0_13_149
*374 FILLER_0_13_15
*375 FILLER_0_13_161
*376 FILLER_0_13_167
*377 FILLER_0_13_169
*378 FILLER_0_13_181
*379 FILLER_0_13_193
*380 FILLER_0_13_205
*381 FILLER_0_13_217
*382 FILLER_0_13_223
*383 FILLER_0_13_225
*384 FILLER_0_13_237
*385 FILLER_0_13_249
*386 FILLER_0_13_261
*387 FILLER_0_13_27
*388 FILLER_0_13_273
*389 FILLER_0_13_279
*390 FILLER_0_13_281
*391 FILLER_0_13_293
*392 FILLER_0_13_3
*393 FILLER_0_13_305
*394 FILLER_0_13_317
*395 FILLER_0_13_329
*396 FILLER_0_13_335
*397 FILLER_0_13_337
*398 FILLER_0_13_349
*399 FILLER_0_13_39
*400 FILLER_0_13_51
*401 FILLER_0_13_55
*402 FILLER_0_13_57
*403 FILLER_0_13_69
*404 FILLER_0_13_81
*405 FILLER_0_13_93
*406 FILLER_0_14_109
*407 FILLER_0_14_121
*408 FILLER_0_14_133
*409 FILLER_0_14_139
*410 FILLER_0_14_141
*411 FILLER_0_14_15
*412 FILLER_0_14_153
*413 FILLER_0_14_165
*414 FILLER_0_14_177
*415 FILLER_0_14_189
*416 FILLER_0_14_195
*417 FILLER_0_14_197
*418 FILLER_0_14_209
*419 FILLER_0_14_221
*420 FILLER_0_14_233
*421 FILLER_0_14_245
*422 FILLER_0_14_251
*423 FILLER_0_14_253
*424 FILLER_0_14_265
*425 FILLER_0_14_27
*426 FILLER_0_14_277
*427 FILLER_0_14_289
*428 FILLER_0_14_29
*429 FILLER_0_14_3
*430 FILLER_0_14_301
*431 FILLER_0_14_307
*432 FILLER_0_14_309
*433 FILLER_0_14_321
*434 FILLER_0_14_333
*435 FILLER_0_14_345
*436 FILLER_0_14_41
*437 FILLER_0_14_53
*438 FILLER_0_14_65
*439 FILLER_0_14_77
*440 FILLER_0_14_83
*441 FILLER_0_14_85
*442 FILLER_0_14_97
*443 FILLER_0_15_105
*444 FILLER_0_15_111
*445 FILLER_0_15_113
*446 FILLER_0_15_125
*447 FILLER_0_15_137
*448 FILLER_0_15_149
*449 FILLER_0_15_15
*450 FILLER_0_15_161
*451 FILLER_0_15_167
*452 FILLER_0_15_169
*453 FILLER_0_15_181
*454 FILLER_0_15_193
*455 FILLER_0_15_205
*456 FILLER_0_15_217
*457 FILLER_0_15_223
*458 FILLER_0_15_225
*459 FILLER_0_15_237
*460 FILLER_0_15_249
*461 FILLER_0_15_261
*462 FILLER_0_15_27
*463 FILLER_0_15_273
*464 FILLER_0_15_279
*465 FILLER_0_15_281
*466 FILLER_0_15_293
*467 FILLER_0_15_3
*468 FILLER_0_15_305
*469 FILLER_0_15_317
*470 FILLER_0_15_329
*471 FILLER_0_15_335
*472 FILLER_0_15_337
*473 FILLER_0_15_349
*474 FILLER_0_15_39
*475 FILLER_0_15_51
*476 FILLER_0_15_55
*477 FILLER_0_15_57
*478 FILLER_0_15_69
*479 FILLER_0_15_81
*480 FILLER_0_15_93
*481 FILLER_0_16_109
*482 FILLER_0_16_121
*483 FILLER_0_16_133
*484 FILLER_0_16_139
*485 FILLER_0_16_141
*486 FILLER_0_16_15
*487 FILLER_0_16_153
*488 FILLER_0_16_165
*489 FILLER_0_16_177
*490 FILLER_0_16_189
*491 FILLER_0_16_195
*492 FILLER_0_16_197
*493 FILLER_0_16_209
*494 FILLER_0_16_221
*495 FILLER_0_16_233
*496 FILLER_0_16_245
*497 FILLER_0_16_251
*498 FILLER_0_16_253
*499 FILLER_0_16_265
*500 FILLER_0_16_27
*501 FILLER_0_16_277
*502 FILLER_0_16_289
*503 FILLER_0_16_29
*504 FILLER_0_16_3
*505 FILLER_0_16_301
*506 FILLER_0_16_307
*507 FILLER_0_16_309
*508 FILLER_0_16_321
*509 FILLER_0_16_333
*510 FILLER_0_16_345
*511 FILLER_0_16_41
*512 FILLER_0_16_53
*513 FILLER_0_16_65
*514 FILLER_0_16_77
*515 FILLER_0_16_83
*516 FILLER_0_16_85
*517 FILLER_0_16_97
*518 FILLER_0_17_105
*519 FILLER_0_17_111
*520 FILLER_0_17_113
*521 FILLER_0_17_125
*522 FILLER_0_17_137
*523 FILLER_0_17_149
*524 FILLER_0_17_15
*525 FILLER_0_17_161
*526 FILLER_0_17_167
*527 FILLER_0_17_169
*528 FILLER_0_17_181
*529 FILLER_0_17_193
*530 FILLER_0_17_205
*531 FILLER_0_17_217
*532 FILLER_0_17_223
*533 FILLER_0_17_225
*534 FILLER_0_17_237
*535 FILLER_0_17_249
*536 FILLER_0_17_261
*537 FILLER_0_17_27
*538 FILLER_0_17_273
*539 FILLER_0_17_279
*540 FILLER_0_17_281
*541 FILLER_0_17_293
*542 FILLER_0_17_3
*543 FILLER_0_17_305
*544 FILLER_0_17_317
*545 FILLER_0_17_329
*546 FILLER_0_17_335
*547 FILLER_0_17_337
*548 FILLER_0_17_349
*549 FILLER_0_17_39
*550 FILLER_0_17_51
*551 FILLER_0_17_55
*552 FILLER_0_17_57
*553 FILLER_0_17_69
*554 FILLER_0_17_81
*555 FILLER_0_17_93
*556 FILLER_0_18_109
*557 FILLER_0_18_121
*558 FILLER_0_18_133
*559 FILLER_0_18_139
*560 FILLER_0_18_141
*561 FILLER_0_18_15
*562 FILLER_0_18_153
*563 FILLER_0_18_165
*564 FILLER_0_18_177
*565 FILLER_0_18_189
*566 FILLER_0_18_195
*567 FILLER_0_18_197
*568 FILLER_0_18_209
*569 FILLER_0_18_221
*570 FILLER_0_18_233
*571 FILLER_0_18_245
*572 FILLER_0_18_251
*573 FILLER_0_18_253
*574 FILLER_0_18_265
*575 FILLER_0_18_27
*576 FILLER_0_18_277
*577 FILLER_0_18_289
*578 FILLER_0_18_29
*579 FILLER_0_18_3
*580 FILLER_0_18_301
*581 FILLER_0_18_307
*582 FILLER_0_18_309
*583 FILLER_0_18_321
*584 FILLER_0_18_333
*585 FILLER_0_18_345
*586 FILLER_0_18_41
*587 FILLER_0_18_53
*588 FILLER_0_18_65
*589 FILLER_0_18_77
*590 FILLER_0_18_83
*591 FILLER_0_18_85
*592 FILLER_0_18_97
*593 FILLER_0_19_105
*594 FILLER_0_19_111
*595 FILLER_0_19_113
*596 FILLER_0_19_125
*597 FILLER_0_19_137
*598 FILLER_0_19_149
*599 FILLER_0_19_15
*600 FILLER_0_19_161
*601 FILLER_0_19_167
*602 FILLER_0_19_169
*603 FILLER_0_19_181
*604 FILLER_0_19_193
*605 FILLER_0_19_205
*606 FILLER_0_19_217
*607 FILLER_0_19_223
*608 FILLER_0_19_225
*609 FILLER_0_19_237
*610 FILLER_0_19_249
*611 FILLER_0_19_261
*612 FILLER_0_19_27
*613 FILLER_0_19_273
*614 FILLER_0_19_279
*615 FILLER_0_19_281
*616 FILLER_0_19_293
*617 FILLER_0_19_3
*618 FILLER_0_19_305
*619 FILLER_0_19_317
*620 FILLER_0_19_329
*621 FILLER_0_19_335
*622 FILLER_0_19_337
*623 FILLER_0_19_349
*624 FILLER_0_19_39
*625 FILLER_0_19_51
*626 FILLER_0_19_55
*627 FILLER_0_19_57
*628 FILLER_0_19_69
*629 FILLER_0_19_81
*630 FILLER_0_19_93
*631 FILLER_0_1_105
*632 FILLER_0_1_111
*633 FILLER_0_1_113
*634 FILLER_0_1_125
*635 FILLER_0_1_137
*636 FILLER_0_1_149
*637 FILLER_0_1_15
*638 FILLER_0_1_161
*639 FILLER_0_1_167
*640 FILLER_0_1_169
*641 FILLER_0_1_181
*642 FILLER_0_1_193
*643 FILLER_0_1_205
*644 FILLER_0_1_217
*645 FILLER_0_1_223
*646 FILLER_0_1_225
*647 FILLER_0_1_237
*648 FILLER_0_1_249
*649 FILLER_0_1_261
*650 FILLER_0_1_27
*651 FILLER_0_1_273
*652 FILLER_0_1_279
*653 FILLER_0_1_281
*654 FILLER_0_1_293
*655 FILLER_0_1_3
*656 FILLER_0_1_305
*657 FILLER_0_1_317
*658 FILLER_0_1_329
*659 FILLER_0_1_335
*660 FILLER_0_1_337
*661 FILLER_0_1_349
*662 FILLER_0_1_39
*663 FILLER_0_1_51
*664 FILLER_0_1_55
*665 FILLER_0_1_57
*666 FILLER_0_1_69
*667 FILLER_0_1_81
*668 FILLER_0_1_93
*669 FILLER_0_20_109
*670 FILLER_0_20_121
*671 FILLER_0_20_133
*672 FILLER_0_20_139
*673 FILLER_0_20_141
*674 FILLER_0_20_15
*675 FILLER_0_20_153
*676 FILLER_0_20_165
*677 FILLER_0_20_177
*678 FILLER_0_20_189
*679 FILLER_0_20_195
*680 FILLER_0_20_197
*681 FILLER_0_20_209
*682 FILLER_0_20_221
*683 FILLER_0_20_233
*684 FILLER_0_20_245
*685 FILLER_0_20_251
*686 FILLER_0_20_253
*687 FILLER_0_20_265
*688 FILLER_0_20_27
*689 FILLER_0_20_277
*690 FILLER_0_20_289
*691 FILLER_0_20_29
*692 FILLER_0_20_3
*693 FILLER_0_20_301
*694 FILLER_0_20_307
*695 FILLER_0_20_309
*696 FILLER_0_20_321
*697 FILLER_0_20_333
*698 FILLER_0_20_345
*699 FILLER_0_20_41
*700 FILLER_0_20_53
*701 FILLER_0_20_65
*702 FILLER_0_20_77
*703 FILLER_0_20_83
*704 FILLER_0_20_85
*705 FILLER_0_20_97
*706 FILLER_0_21_105
*707 FILLER_0_21_111
*708 FILLER_0_21_113
*709 FILLER_0_21_125
*710 FILLER_0_21_137
*711 FILLER_0_21_149
*712 FILLER_0_21_15
*713 FILLER_0_21_161
*714 FILLER_0_21_167
*715 FILLER_0_21_169
*716 FILLER_0_21_181
*717 FILLER_0_21_193
*718 FILLER_0_21_205
*719 FILLER_0_21_217
*720 FILLER_0_21_223
*721 FILLER_0_21_225
*722 FILLER_0_21_237
*723 FILLER_0_21_249
*724 FILLER_0_21_261
*725 FILLER_0_21_27
*726 FILLER_0_21_273
*727 FILLER_0_21_279
*728 FILLER_0_21_281
*729 FILLER_0_21_293
*730 FILLER_0_21_3
*731 FILLER_0_21_305
*732 FILLER_0_21_317
*733 FILLER_0_21_329
*734 FILLER_0_21_335
*735 FILLER_0_21_337
*736 FILLER_0_21_349
*737 FILLER_0_21_39
*738 FILLER_0_21_51
*739 FILLER_0_21_55
*740 FILLER_0_21_57
*741 FILLER_0_21_69
*742 FILLER_0_21_81
*743 FILLER_0_21_93
*744 FILLER_0_22_109
*745 FILLER_0_22_121
*746 FILLER_0_22_133
*747 FILLER_0_22_139
*748 FILLER_0_22_141
*749 FILLER_0_22_15
*750 FILLER_0_22_153
*751 FILLER_0_22_165
*752 FILLER_0_22_177
*753 FILLER_0_22_189
*754 FILLER_0_22_195
*755 FILLER_0_22_197
*756 FILLER_0_22_209
*757 FILLER_0_22_221
*758 FILLER_0_22_233
*759 FILLER_0_22_245
*760 FILLER_0_22_251
*761 FILLER_0_22_253
*762 FILLER_0_22_265
*763 FILLER_0_22_27
*764 FILLER_0_22_277
*765 FILLER_0_22_289
*766 FILLER_0_22_29
*767 FILLER_0_22_3
*768 FILLER_0_22_301
*769 FILLER_0_22_307
*770 FILLER_0_22_309
*771 FILLER_0_22_321
*772 FILLER_0_22_333
*773 FILLER_0_22_345
*774 FILLER_0_22_41
*775 FILLER_0_22_53
*776 FILLER_0_22_65
*777 FILLER_0_22_77
*778 FILLER_0_22_83
*779 FILLER_0_22_85
*780 FILLER_0_22_97
*781 FILLER_0_23_105
*782 FILLER_0_23_111
*783 FILLER_0_23_113
*784 FILLER_0_23_125
*785 FILLER_0_23_137
*786 FILLER_0_23_149
*787 FILLER_0_23_15
*788 FILLER_0_23_161
*789 FILLER_0_23_167
*790 FILLER_0_23_169
*791 FILLER_0_23_181
*792 FILLER_0_23_193
*793 FILLER_0_23_205
*794 FILLER_0_23_217
*795 FILLER_0_23_223
*796 FILLER_0_23_225
*797 FILLER_0_23_237
*798 FILLER_0_23_249
*799 FILLER_0_23_261
*800 FILLER_0_23_27
*801 FILLER_0_23_273
*802 FILLER_0_23_279
*803 FILLER_0_23_281
*804 FILLER_0_23_293
*805 FILLER_0_23_3
*806 FILLER_0_23_305
*807 FILLER_0_23_317
*808 FILLER_0_23_329
*809 FILLER_0_23_335
*810 FILLER_0_23_337
*811 FILLER_0_23_349
*812 FILLER_0_23_39
*813 FILLER_0_23_51
*814 FILLER_0_23_55
*815 FILLER_0_23_57
*816 FILLER_0_23_69
*817 FILLER_0_23_81
*818 FILLER_0_23_93
*819 FILLER_0_24_109
*820 FILLER_0_24_121
*821 FILLER_0_24_133
*822 FILLER_0_24_139
*823 FILLER_0_24_141
*824 FILLER_0_24_15
*825 FILLER_0_24_153
*826 FILLER_0_24_165
*827 FILLER_0_24_177
*828 FILLER_0_24_189
*829 FILLER_0_24_195
*830 FILLER_0_24_197
*831 FILLER_0_24_209
*832 FILLER_0_24_221
*833 FILLER_0_24_233
*834 FILLER_0_24_245
*835 FILLER_0_24_251
*836 FILLER_0_24_253
*837 FILLER_0_24_265
*838 FILLER_0_24_27
*839 FILLER_0_24_277
*840 FILLER_0_24_289
*841 FILLER_0_24_29
*842 FILLER_0_24_3
*843 FILLER_0_24_301
*844 FILLER_0_24_307
*845 FILLER_0_24_309
*846 FILLER_0_24_321
*847 FILLER_0_24_333
*848 FILLER_0_24_345
*849 FILLER_0_24_41
*850 FILLER_0_24_53
*851 FILLER_0_24_65
*852 FILLER_0_24_77
*853 FILLER_0_24_83
*854 FILLER_0_24_85
*855 FILLER_0_24_97
*856 FILLER_0_25_105
*857 FILLER_0_25_111
*858 FILLER_0_25_113
*859 FILLER_0_25_125
*860 FILLER_0_25_137
*861 FILLER_0_25_149
*862 FILLER_0_25_15
*863 FILLER_0_25_161
*864 FILLER_0_25_167
*865 FILLER_0_25_169
*866 FILLER_0_25_181
*867 FILLER_0_25_193
*868 FILLER_0_25_205
*869 FILLER_0_25_217
*870 FILLER_0_25_223
*871 FILLER_0_25_225
*872 FILLER_0_25_237
*873 FILLER_0_25_249
*874 FILLER_0_25_261
*875 FILLER_0_25_27
*876 FILLER_0_25_273
*877 FILLER_0_25_279
*878 FILLER_0_25_281
*879 FILLER_0_25_293
*880 FILLER_0_25_3
*881 FILLER_0_25_305
*882 FILLER_0_25_317
*883 FILLER_0_25_329
*884 FILLER_0_25_335
*885 FILLER_0_25_337
*886 FILLER_0_25_349
*887 FILLER_0_25_39
*888 FILLER_0_25_51
*889 FILLER_0_25_55
*890 FILLER_0_25_57
*891 FILLER_0_25_69
*892 FILLER_0_25_81
*893 FILLER_0_25_93
*894 FILLER_0_26_109
*895 FILLER_0_26_121
*896 FILLER_0_26_133
*897 FILLER_0_26_139
*898 FILLER_0_26_141
*899 FILLER_0_26_15
*900 FILLER_0_26_153
*901 FILLER_0_26_165
*902 FILLER_0_26_177
*903 FILLER_0_26_189
*904 FILLER_0_26_195
*905 FILLER_0_26_197
*906 FILLER_0_26_209
*907 FILLER_0_26_221
*908 FILLER_0_26_233
*909 FILLER_0_26_245
*910 FILLER_0_26_251
*911 FILLER_0_26_253
*912 FILLER_0_26_265
*913 FILLER_0_26_27
*914 FILLER_0_26_277
*915 FILLER_0_26_289
*916 FILLER_0_26_29
*917 FILLER_0_26_3
*918 FILLER_0_26_301
*919 FILLER_0_26_307
*920 FILLER_0_26_309
*921 FILLER_0_26_321
*922 FILLER_0_26_333
*923 FILLER_0_26_345
*924 FILLER_0_26_41
*925 FILLER_0_26_53
*926 FILLER_0_26_65
*927 FILLER_0_26_77
*928 FILLER_0_26_83
*929 FILLER_0_26_85
*930 FILLER_0_26_97
*931 FILLER_0_27_105
*932 FILLER_0_27_111
*933 FILLER_0_27_113
*934 FILLER_0_27_125
*935 FILLER_0_27_137
*936 FILLER_0_27_149
*937 FILLER_0_27_15
*938 FILLER_0_27_161
*939 FILLER_0_27_167
*940 FILLER_0_27_172
*941 FILLER_0_27_184
*942 FILLER_0_27_196
*943 FILLER_0_27_208
*944 FILLER_0_27_220
*945 FILLER_0_27_225
*946 FILLER_0_27_237
*947 FILLER_0_27_249
*948 FILLER_0_27_261
*949 FILLER_0_27_27
*950 FILLER_0_27_273
*951 FILLER_0_27_279
*952 FILLER_0_27_281
*953 FILLER_0_27_293
*954 FILLER_0_27_3
*955 FILLER_0_27_305
*956 FILLER_0_27_317
*957 FILLER_0_27_329
*958 FILLER_0_27_335
*959 FILLER_0_27_337
*960 FILLER_0_27_349
*961 FILLER_0_27_39
*962 FILLER_0_27_51
*963 FILLER_0_27_55
*964 FILLER_0_27_57
*965 FILLER_0_27_69
*966 FILLER_0_27_81
*967 FILLER_0_27_93
*968 FILLER_0_28_109
*969 FILLER_0_28_131
*970 FILLER_0_28_139
*971 FILLER_0_28_15
*972 FILLER_0_28_157
*973 FILLER_0_28_185
*974 FILLER_0_28_197
*975 FILLER_0_28_215
*976 FILLER_0_28_221
*977 FILLER_0_28_242
*978 FILLER_0_28_250
*979 FILLER_0_28_269
*980 FILLER_0_28_27
*981 FILLER_0_28_289
*982 FILLER_0_28_29
*983 FILLER_0_28_3
*984 FILLER_0_28_301
*985 FILLER_0_28_307
*986 FILLER_0_28_309
*987 FILLER_0_28_321
*988 FILLER_0_28_333
*989 FILLER_0_28_345
*990 FILLER_0_28_41
*991 FILLER_0_28_53
*992 FILLER_0_28_65
*993 FILLER_0_28_77
*994 FILLER_0_28_83
*995 FILLER_0_28_85
*996 FILLER_0_28_97
*997 FILLER_0_29_105
*998 FILLER_0_29_111
*999 FILLER_0_29_133
*1000 FILLER_0_29_15
*1001 FILLER_0_29_150
*1002 FILLER_0_29_162
*1003 FILLER_0_29_175
*1004 FILLER_0_29_183
*1005 FILLER_0_29_198
*1006 FILLER_0_29_210
*1007 FILLER_0_29_218
*1008 FILLER_0_29_225
*1009 FILLER_0_29_259
*1010 FILLER_0_29_267
*1011 FILLER_0_29_27
*1012 FILLER_0_29_271
*1013 FILLER_0_29_281
*1014 FILLER_0_29_3
*1015 FILLER_0_29_307
*1016 FILLER_0_29_319
*1017 FILLER_0_29_331
*1018 FILLER_0_29_335
*1019 FILLER_0_29_337
*1020 FILLER_0_29_349
*1021 FILLER_0_29_39
*1022 FILLER_0_29_51
*1023 FILLER_0_29_55
*1024 FILLER_0_29_57
*1025 FILLER_0_29_69
*1026 FILLER_0_29_81
*1027 FILLER_0_29_93
*1028 FILLER_0_2_109
*1029 FILLER_0_2_121
*1030 FILLER_0_2_133
*1031 FILLER_0_2_139
*1032 FILLER_0_2_141
*1033 FILLER_0_2_15
*1034 FILLER_0_2_153
*1035 FILLER_0_2_165
*1036 FILLER_0_2_177
*1037 FILLER_0_2_189
*1038 FILLER_0_2_195
*1039 FILLER_0_2_197
*1040 FILLER_0_2_209
*1041 FILLER_0_2_221
*1042 FILLER_0_2_233
*1043 FILLER_0_2_245
*1044 FILLER_0_2_251
*1045 FILLER_0_2_253
*1046 FILLER_0_2_265
*1047 FILLER_0_2_27
*1048 FILLER_0_2_277
*1049 FILLER_0_2_289
*1050 FILLER_0_2_29
*1051 FILLER_0_2_3
*1052 FILLER_0_2_301
*1053 FILLER_0_2_307
*1054 FILLER_0_2_309
*1055 FILLER_0_2_321
*1056 FILLER_0_2_333
*1057 FILLER_0_2_345
*1058 FILLER_0_2_41
*1059 FILLER_0_2_53
*1060 FILLER_0_2_65
*1061 FILLER_0_2_77
*1062 FILLER_0_2_83
*1063 FILLER_0_2_85
*1064 FILLER_0_2_97
*1065 FILLER_0_30_116
*1066 FILLER_0_30_122
*1067 FILLER_0_30_129
*1068 FILLER_0_30_137
*1069 FILLER_0_30_141
*1070 FILLER_0_30_15
*1071 FILLER_0_30_153
*1072 FILLER_0_30_165
*1073 FILLER_0_30_171
*1074 FILLER_0_30_182
*1075 FILLER_0_30_191
*1076 FILLER_0_30_195
*1077 FILLER_0_30_213
*1078 FILLER_0_30_223
*1079 FILLER_0_30_235
*1080 FILLER_0_30_250
*1081 FILLER_0_30_253
*1082 FILLER_0_30_257
*1083 FILLER_0_30_27
*1084 FILLER_0_30_276
*1085 FILLER_0_30_282
*1086 FILLER_0_30_29
*1087 FILLER_0_30_291
*1088 FILLER_0_30_3
*1089 FILLER_0_30_307
*1090 FILLER_0_30_312
*1091 FILLER_0_30_324
*1092 FILLER_0_30_336
*1093 FILLER_0_30_348
*1094 FILLER_0_30_41
*1095 FILLER_0_30_53
*1096 FILLER_0_30_65
*1097 FILLER_0_30_77
*1098 FILLER_0_30_83
*1099 FILLER_0_30_85
*1100 FILLER_0_30_97
*1101 FILLER_0_31_101
*1102 FILLER_0_31_118
*1103 FILLER_0_31_126
*1104 FILLER_0_31_132
*1105 FILLER_0_31_15
*1106 FILLER_0_31_158
*1107 FILLER_0_31_166
*1108 FILLER_0_31_177
*1109 FILLER_0_31_190
*1110 FILLER_0_31_195
*1111 FILLER_0_31_207
*1112 FILLER_0_31_219
*1113 FILLER_0_31_223
*1114 FILLER_0_31_244
*1115 FILLER_0_31_256
*1116 FILLER_0_31_262
*1117 FILLER_0_31_269
*1118 FILLER_0_31_27
*1119 FILLER_0_31_279
*1120 FILLER_0_31_281
*1121 FILLER_0_31_3
*1122 FILLER_0_31_325
*1123 FILLER_0_31_333
*1124 FILLER_0_31_337
*1125 FILLER_0_31_349
*1126 FILLER_0_31_39
*1127 FILLER_0_31_51
*1128 FILLER_0_31_55
*1129 FILLER_0_31_57
*1130 FILLER_0_31_69
*1131 FILLER_0_31_81
*1132 FILLER_0_31_93
*1133 FILLER_0_32_121
*1134 FILLER_0_32_136
*1135 FILLER_0_32_141
*1136 FILLER_0_32_15
*1137 FILLER_0_32_156
*1138 FILLER_0_32_164
*1139 FILLER_0_32_173
*1140 FILLER_0_32_181
*1141 FILLER_0_32_192
*1142 FILLER_0_32_197
*1143 FILLER_0_32_209
*1144 FILLER_0_32_221
*1145 FILLER_0_32_233
*1146 FILLER_0_32_250
*1147 FILLER_0_32_253
*1148 FILLER_0_32_267
*1149 FILLER_0_32_27
*1150 FILLER_0_32_29
*1151 FILLER_0_32_295
*1152 FILLER_0_32_3
*1153 FILLER_0_32_307
*1154 FILLER_0_32_309
*1155 FILLER_0_32_321
*1156 FILLER_0_32_333
*1157 FILLER_0_32_345
*1158 FILLER_0_32_41
*1159 FILLER_0_32_53
*1160 FILLER_0_32_65
*1161 FILLER_0_32_77
*1162 FILLER_0_32_83
*1163 FILLER_0_32_85
*1164 FILLER_0_32_97
*1165 FILLER_0_33_102
*1166 FILLER_0_33_110
*1167 FILLER_0_33_134
*1168 FILLER_0_33_15
*1169 FILLER_0_33_154
*1170 FILLER_0_33_167
*1171 FILLER_0_33_176
*1172 FILLER_0_33_196
*1173 FILLER_0_33_262
*1174 FILLER_0_33_27
*1175 FILLER_0_33_270
*1176 FILLER_0_33_278
*1177 FILLER_0_33_281
*1178 FILLER_0_33_293
*1179 FILLER_0_33_3
*1180 FILLER_0_33_310
*1181 FILLER_0_33_322
*1182 FILLER_0_33_334
*1183 FILLER_0_33_337
*1184 FILLER_0_33_349
*1185 FILLER_0_33_39
*1186 FILLER_0_33_51
*1187 FILLER_0_33_55
*1188 FILLER_0_33_57
*1189 FILLER_0_33_69
*1190 FILLER_0_33_81
*1191 FILLER_0_33_93
*1192 FILLER_0_33_97
*1193 FILLER_0_34_114
*1194 FILLER_0_34_132
*1195 FILLER_0_34_141
*1196 FILLER_0_34_15
*1197 FILLER_0_34_162
*1198 FILLER_0_34_166
*1199 FILLER_0_34_179
*1200 FILLER_0_34_192
*1201 FILLER_0_34_206
*1202 FILLER_0_34_222
*1203 FILLER_0_34_230
*1204 FILLER_0_34_239
*1205 FILLER_0_34_251
*1206 FILLER_0_34_27
*1207 FILLER_0_34_280
*1208 FILLER_0_34_286
*1209 FILLER_0_34_29
*1210 FILLER_0_34_3
*1211 FILLER_0_34_307
*1212 FILLER_0_34_328
*1213 FILLER_0_34_340
*1214 FILLER_0_34_348
*1215 FILLER_0_34_41
*1216 FILLER_0_34_53
*1217 FILLER_0_34_65
*1218 FILLER_0_34_77
*1219 FILLER_0_34_83
*1220 FILLER_0_34_85
*1221 FILLER_0_34_93
*1222 FILLER_0_35_105
*1223 FILLER_0_35_111
*1224 FILLER_0_35_113
*1225 FILLER_0_35_122
*1226 FILLER_0_35_15
*1227 FILLER_0_35_150
*1228 FILLER_0_35_169
*1229 FILLER_0_35_187
*1230 FILLER_0_35_203
*1231 FILLER_0_35_223
*1232 FILLER_0_35_240
*1233 FILLER_0_35_254
*1234 FILLER_0_35_27
*1235 FILLER_0_35_279
*1236 FILLER_0_35_281
*1237 FILLER_0_35_293
*1238 FILLER_0_35_3
*1239 FILLER_0_35_303
*1240 FILLER_0_35_315
*1241 FILLER_0_35_327
*1242 FILLER_0_35_335
*1243 FILLER_0_35_337
*1244 FILLER_0_35_349
*1245 FILLER_0_35_39
*1246 FILLER_0_35_51
*1247 FILLER_0_35_55
*1248 FILLER_0_35_57
*1249 FILLER_0_35_69
*1250 FILLER_0_35_81
*1251 FILLER_0_35_93
*1252 FILLER_0_36_109
*1253 FILLER_0_36_121
*1254 FILLER_0_36_133
*1255 FILLER_0_36_139
*1256 FILLER_0_36_15
*1257 FILLER_0_36_169
*1258 FILLER_0_36_181
*1259 FILLER_0_36_187
*1260 FILLER_0_36_197
*1261 FILLER_0_36_205
*1262 FILLER_0_36_209
*1263 FILLER_0_36_221
*1264 FILLER_0_36_247
*1265 FILLER_0_36_251
*1266 FILLER_0_36_261
*1267 FILLER_0_36_27
*1268 FILLER_0_36_270
*1269 FILLER_0_36_29
*1270 FILLER_0_36_299
*1271 FILLER_0_36_3
*1272 FILLER_0_36_326
*1273 FILLER_0_36_338
*1274 FILLER_0_36_350
*1275 FILLER_0_36_41
*1276 FILLER_0_36_53
*1277 FILLER_0_36_65
*1278 FILLER_0_36_77
*1279 FILLER_0_36_83
*1280 FILLER_0_36_85
*1281 FILLER_0_36_97
*1282 FILLER_0_37_105
*1283 FILLER_0_37_111
*1284 FILLER_0_37_113
*1285 FILLER_0_37_125
*1286 FILLER_0_37_137
*1287 FILLER_0_37_149
*1288 FILLER_0_37_15
*1289 FILLER_0_37_169
*1290 FILLER_0_37_181
*1291 FILLER_0_37_198
*1292 FILLER_0_37_241
*1293 FILLER_0_37_258
*1294 FILLER_0_37_27
*1295 FILLER_0_37_272
*1296 FILLER_0_37_3
*1297 FILLER_0_37_301
*1298 FILLER_0_37_313
*1299 FILLER_0_37_325
*1300 FILLER_0_37_333
*1301 FILLER_0_37_337
*1302 FILLER_0_37_349
*1303 FILLER_0_37_39
*1304 FILLER_0_37_51
*1305 FILLER_0_37_55
*1306 FILLER_0_37_57
*1307 FILLER_0_37_69
*1308 FILLER_0_37_81
*1309 FILLER_0_37_93
*1310 FILLER_0_38_104
*1311 FILLER_0_38_110
*1312 FILLER_0_38_116
*1313 FILLER_0_38_122
*1314 FILLER_0_38_128
*1315 FILLER_0_38_134
*1316 FILLER_0_38_141
*1317 FILLER_0_38_146
*1318 FILLER_0_38_15
*1319 FILLER_0_38_152
*1320 FILLER_0_38_158
*1321 FILLER_0_38_169
*1322 FILLER_0_38_184
*1323 FILLER_0_38_190
*1324 FILLER_0_38_205
*1325 FILLER_0_38_249
*1326 FILLER_0_38_253
*1327 FILLER_0_38_261
*1328 FILLER_0_38_27
*1329 FILLER_0_38_281
*1330 FILLER_0_38_29
*1331 FILLER_0_38_293
*1332 FILLER_0_38_3
*1333 FILLER_0_38_305
*1334 FILLER_0_38_313
*1335 FILLER_0_38_325
*1336 FILLER_0_38_333
*1337 FILLER_0_38_337
*1338 FILLER_0_38_349
*1339 FILLER_0_38_41
*1340 FILLER_0_38_53
*1341 FILLER_0_38_57
*1342 FILLER_0_38_68
*1343 FILLER_0_38_74
*1344 FILLER_0_38_80
*1345 FILLER_0_38_88
*1346 FILLER_0_38_92
*1347 FILLER_0_38_98
*1348 FILLER_0_3_105
*1349 FILLER_0_3_111
*1350 FILLER_0_3_113
*1351 FILLER_0_3_125
*1352 FILLER_0_3_137
*1353 FILLER_0_3_149
*1354 FILLER_0_3_15
*1355 FILLER_0_3_161
*1356 FILLER_0_3_167
*1357 FILLER_0_3_169
*1358 FILLER_0_3_181
*1359 FILLER_0_3_193
*1360 FILLER_0_3_205
*1361 FILLER_0_3_217
*1362 FILLER_0_3_223
*1363 FILLER_0_3_225
*1364 FILLER_0_3_237
*1365 FILLER_0_3_249
*1366 FILLER_0_3_261
*1367 FILLER_0_3_27
*1368 FILLER_0_3_273
*1369 FILLER_0_3_279
*1370 FILLER_0_3_281
*1371 FILLER_0_3_293
*1372 FILLER_0_3_3
*1373 FILLER_0_3_305
*1374 FILLER_0_3_317
*1375 FILLER_0_3_329
*1376 FILLER_0_3_335
*1377 FILLER_0_3_337
*1378 FILLER_0_3_349
*1379 FILLER_0_3_39
*1380 FILLER_0_3_51
*1381 FILLER_0_3_55
*1382 FILLER_0_3_57
*1383 FILLER_0_3_69
*1384 FILLER_0_3_81
*1385 FILLER_0_3_93
*1386 FILLER_0_4_109
*1387 FILLER_0_4_121
*1388 FILLER_0_4_133
*1389 FILLER_0_4_139
*1390 FILLER_0_4_141
*1391 FILLER_0_4_15
*1392 FILLER_0_4_153
*1393 FILLER_0_4_165
*1394 FILLER_0_4_177
*1395 FILLER_0_4_189
*1396 FILLER_0_4_195
*1397 FILLER_0_4_197
*1398 FILLER_0_4_209
*1399 FILLER_0_4_221
*1400 FILLER_0_4_233
*1401 FILLER_0_4_245
*1402 FILLER_0_4_251
*1403 FILLER_0_4_253
*1404 FILLER_0_4_265
*1405 FILLER_0_4_27
*1406 FILLER_0_4_277
*1407 FILLER_0_4_289
*1408 FILLER_0_4_29
*1409 FILLER_0_4_3
*1410 FILLER_0_4_301
*1411 FILLER_0_4_307
*1412 FILLER_0_4_309
*1413 FILLER_0_4_321
*1414 FILLER_0_4_333
*1415 FILLER_0_4_345
*1416 FILLER_0_4_41
*1417 FILLER_0_4_53
*1418 FILLER_0_4_65
*1419 FILLER_0_4_77
*1420 FILLER_0_4_83
*1421 FILLER_0_4_85
*1422 FILLER_0_4_97
*1423 FILLER_0_5_105
*1424 FILLER_0_5_111
*1425 FILLER_0_5_113
*1426 FILLER_0_5_125
*1427 FILLER_0_5_137
*1428 FILLER_0_5_149
*1429 FILLER_0_5_15
*1430 FILLER_0_5_161
*1431 FILLER_0_5_167
*1432 FILLER_0_5_169
*1433 FILLER_0_5_181
*1434 FILLER_0_5_193
*1435 FILLER_0_5_205
*1436 FILLER_0_5_217
*1437 FILLER_0_5_223
*1438 FILLER_0_5_225
*1439 FILLER_0_5_237
*1440 FILLER_0_5_249
*1441 FILLER_0_5_261
*1442 FILLER_0_5_27
*1443 FILLER_0_5_273
*1444 FILLER_0_5_279
*1445 FILLER_0_5_281
*1446 FILLER_0_5_293
*1447 FILLER_0_5_3
*1448 FILLER_0_5_305
*1449 FILLER_0_5_317
*1450 FILLER_0_5_329
*1451 FILLER_0_5_335
*1452 FILLER_0_5_337
*1453 FILLER_0_5_349
*1454 FILLER_0_5_39
*1455 FILLER_0_5_51
*1456 FILLER_0_5_55
*1457 FILLER_0_5_57
*1458 FILLER_0_5_69
*1459 FILLER_0_5_81
*1460 FILLER_0_5_93
*1461 FILLER_0_6_109
*1462 FILLER_0_6_121
*1463 FILLER_0_6_133
*1464 FILLER_0_6_139
*1465 FILLER_0_6_141
*1466 FILLER_0_6_15
*1467 FILLER_0_6_153
*1468 FILLER_0_6_165
*1469 FILLER_0_6_177
*1470 FILLER_0_6_189
*1471 FILLER_0_6_195
*1472 FILLER_0_6_197
*1473 FILLER_0_6_209
*1474 FILLER_0_6_221
*1475 FILLER_0_6_233
*1476 FILLER_0_6_245
*1477 FILLER_0_6_251
*1478 FILLER_0_6_253
*1479 FILLER_0_6_265
*1480 FILLER_0_6_27
*1481 FILLER_0_6_277
*1482 FILLER_0_6_289
*1483 FILLER_0_6_29
*1484 FILLER_0_6_3
*1485 FILLER_0_6_301
*1486 FILLER_0_6_307
*1487 FILLER_0_6_309
*1488 FILLER_0_6_321
*1489 FILLER_0_6_333
*1490 FILLER_0_6_345
*1491 FILLER_0_6_41
*1492 FILLER_0_6_53
*1493 FILLER_0_6_65
*1494 FILLER_0_6_77
*1495 FILLER_0_6_83
*1496 FILLER_0_6_85
*1497 FILLER_0_6_97