*SPEF "ieee 1481-1999"
*DESIGN "tt_um_jleugeri_ticktocktokens"
*DATE "11:11:11 Fri 11 11, 1111"
*VENDOR "OpenRCX"
*PROGRAM "Parallel Extraction"
*VERSION "1.0"
*DESIGN_FLOW "NAME_SCOPE LOCAL" "PIN_CAP NONE"
*DIVIDER /
*DELIMITER :
*BUS_DELIMITER []
*T_UNIT 1 NS
*C_UNIT 1 PF
*R_UNIT 1 OHM
*L_UNIT 1 HENRY

*NAME_MAP
*3 clk
*4 ena
*5 rst_n
*6 ui_in[0]
*7 ui_in[1]
*8 ui_in[2]
*9 ui_in[3]
*10 ui_in[4]
*11 ui_in[5]
*12 ui_in[6]
*13 ui_in[7]
*14 uio_in[0]
*15 uio_in[1]
*16 uio_in[2]
*17 uio_in[3]
*18 uio_in[4]
*19 uio_in[5]
*20 uio_in[6]
*21 uio_in[7]
*22 net17
*23 net18
*24 net19
*25 net20
*26 net21
*27 net22
*28 net23
*29 net24
*30 net25
*31 net26
*32 net27
*33 net28
*34 net29
*35 net30
*36 net31
*37 net32
*38 uo_out[0]
*39 uo_out[1]
*40 uo_out[2]
*41 uo_out[3]
*42 uo_out[4]
*43 uo_out[5]
*44 uo_out[6]
*45 uo_out[7]
*46 _000_
*47 _001_
*48 _002_
*49 _003_
*50 _004_
*51 _005_
*52 _006_
*53 _007_
*54 _008_
*55 _009_
*56 _010_
*57 _011_
*58 _012_
*59 _013_
*60 _014_
*61 _015_
*62 _016_
*63 _017_
*64 _018_
*65 _019_
*66 _020_
*67 _021_
*68 _022_
*69 _023_
*70 _024_
*71 _025_
*72 _026_
*73 _027_
*74 _028_
*75 _029_
*76 _030_
*77 _031_
*78 _032_
*79 _033_
*80 _034_
*81 _035_
*82 _036_
*83 _037_
*84 _038_
*85 _039_
*86 _040_
*87 _041_
*88 _042_
*89 _043_
*90 _044_
*91 _045_
*92 _046_
*93 _047_
*94 _048_
*95 _049_
*96 _050_
*97 _051_
*98 _052_
*99 _053_
*100 _054_
*101 _055_
*102 _056_
*103 _057_
*104 _058_
*105 _059_
*106 _060_
*107 _061_
*108 _062_
*109 _063_
*110 _064_
*111 _065_
*112 _066_
*113 _067_
*114 _068_
*115 _069_
*116 _070_
*117 _071_
*118 _072_
*119 _073_
*120 _074_
*121 _075_
*122 _076_
*123 _077_
*124 _078_
*125 _079_
*126 _080_
*127 _081_
*128 _082_
*129 _083_
*130 _084_
*131 _085_
*132 _086_
*133 _087_
*134 _088_
*135 _089_
*136 _090_
*137 _091_
*138 _092_
*139 _093_
*140 _094_
*141 _095_
*142 _096_
*143 _097_
*144 _098_
*145 _099_
*146 _100_
*147 _101_
*148 _102_
*149 _103_
*150 _104_
*151 _105_
*152 _106_
*153 _107_
*154 _108_
*155 _109_
*156 _110_
*157 _111_
*158 _112_
*159 _113_
*160 _114_
*161 _115_
*162 _116_
*163 _117_
*164 _118_
*165 _119_
*166 _120_
*167 _121_
*168 _122_
*169 _123_
*170 _124_
*171 _125_
*172 _126_
*173 _127_
*174 _128_
*175 _129_
*176 _130_
*177 _131_
*178 _132_
*179 _133_
*180 _134_
*181 _135_
*182 _136_
*183 _137_
*184 _138_
*185 _139_
*186 _140_
*187 _141_
*188 _142_
*189 _143_
*190 _144_
*191 _145_
*192 _146_
*193 _147_
*194 _148_
*195 _149_
*196 _150_
*197 _151_
*198 _152_
*199 _153_
*200 _154_
*201 _155_
*202 _156_
*203 _157_
*204 _158_
*205 _159_
*206 _160_
*207 _161_
*208 _162_
*209 _163_
*210 _164_
*211 _165_
*212 _166_
*213 _167_
*214 _168_
*215 _169_
*216 _170_
*217 _171_
*218 _172_
*219 _173_
*220 _174_
*221 _175_
*222 _176_
*223 _177_
*224 _178_
*225 _179_
*226 _180_
*227 _181_
*228 _182_
*229 _183_
*230 _184_
*231 _185_
*232 _186_
*233 _187_
*234 _188_
*235 _189_
*236 _190_
*237 _191_
*238 _192_
*239 _193_
*240 _194_
*241 _195_
*242 _196_
*243 _197_
*244 _198_
*245 _199_
*246 _200_
*247 _201_
*248 _202_
*249 _203_
*250 _204_
*251 _205_
*252 _206_
*253 _207_
*254 _208_
*255 _209_
*256 _210_
*257 _211_
*258 _212_
*259 _213_
*260 _214_
*261 _215_
*262 _216_
*263 _217_
*264 _218_
*265 _219_
*266 _220_
*267 _221_
*268 _222_
*269 _223_
*270 _224_
*271 _225_
*272 _226_
*273 _227_
*274 _228_
*275 _229_
*276 _230_
*277 _231_
*278 _232_
*279 _233_
*280 _234_
*281 _235_
*282 _236_
*283 _237_
*284 _238_
*285 _239_
*286 _240_
*287 _241_
*288 _242_
*289 _243_
*290 _244_
*291 _245_
*292 _246_
*293 _247_
*294 _248_
*295 _249_
*296 _250_
*297 _251_
*298 _252_
*299 _253_
*300 _254_
*301 _255_
*302 _256_
*303 _257_
*304 _258_
*305 _259_
*306 _260_
*307 _261_
*308 _262_
*309 _263_
*310 _264_
*311 _265_
*312 _266_
*313 _267_
*314 _268_
*315 _269_
*316 _270_
*317 _271_
*318 _272_
*319 _273_
*320 _274_
*321 _275_
*322 _276_
*323 _277_
*324 _278_
*325 _279_
*326 _280_
*327 _281_
*328 _282_
*329 _283_
*330 _284_
*331 _285_
*332 _286_
*333 _287_
*334 _288_
*335 _289_
*336 _290_
*337 _291_
*338 _292_
*339 _293_
*340 _294_
*341 _295_
*342 _296_
*343 _297_
*344 _298_
*345 _299_
*346 _300_
*347 _301_
*348 _302_
*349 _303_
*350 _304_
*351 _305_
*352 _306_
*353 _307_
*354 _308_
*355 _309_
*356 _310_
*357 _311_
*358 _312_
*359 _313_
*360 _314_
*361 _315_
*362 _316_
*363 _317_
*364 _318_
*365 _319_
*366 _320_
*367 _321_
*368 _322_
*369 _323_
*370 _324_
*371 _325_
*372 _326_
*373 _327_
*374 _328_
*375 _329_
*376 _330_
*377 _331_
*378 _332_
*379 _333_
*380 _334_
*381 _335_
*382 _336_
*383 _337_
*384 _338_
*385 _339_
*386 _340_
*387 _341_
*388 _342_
*389 _343_
*390 _344_
*391 _345_
*392 _346_
*393 _347_
*394 _348_
*395 _349_
*396 _350_
*397 _351_
*398 _352_
*399 _353_
*400 _354_
*401 _355_
*402 _356_
*403 _357_
*404 _358_
*405 _359_
*406 _360_
*407 _361_
*408 _362_
*409 _363_
*410 _364_
*411 _365_
*412 _366_
*413 _367_
*414 _368_
*415 _369_
*416 _370_
*417 _371_
*418 _372_
*419 _373_
*420 _374_
*421 _375_
*422 _376_
*423 _377_
*424 _378_
*425 _379_
*426 _380_
*427 _381_
*428 _382_
*429 _383_
*430 _384_
*431 _385_
*432 _386_
*433 _387_
*434 _388_
*435 _389_
*436 _390_
*437 _391_
*438 _392_
*439 _393_
*440 _394_
*441 _395_
*442 _396_
*443 _397_
*444 _398_
*445 _399_
*446 _400_
*447 _401_
*448 _402_
*449 _403_
*450 _404_
*451 _405_
*452 _406_
*453 _407_
*454 _408_
*455 _409_
*456 _410_
*457 _411_
*458 _412_
*459 _413_
*460 _414_
*461 _415_
*462 _416_
*463 clknet_0_clk
*464 clknet_3_0__leaf_clk
*465 clknet_3_1__leaf_clk
*466 clknet_3_2__leaf_clk
*467 clknet_3_3__leaf_clk
*468 clknet_3_4__leaf_clk
*469 clknet_3_5__leaf_clk
*470 clknet_3_6__leaf_clk
*471 clknet_3_7__leaf_clk
*472 expect_data
*473 net1
*474 net10
*475 net11
*476 net12
*477 net13
*478 net14
*479 net15
*480 net16
*481 net2
*482 net3
*483 net33
*484 net34
*485 net35
*486 net36
*487 net37
*488 net38
*489 net39
*490 net4
*491 net40
*492 net41
*493 net42
*494 net43
*495 net44
*496 net45
*497 net46
*498 net47
*499 net48
*500 net49
*501 net5
*502 net50
*503 net51
*504 net52
*505 net53
*506 net54
*507 net55
*508 net56
*509 net57
*510 net58
*511 net59
*512 net6
*513 net60
*514 net61
*515 net62
*516 net7
*517 net8
*518 net9
*519 proc\.bad_tokens\[0\]
*520 proc\.bad_tokens\[1\]
*521 proc\.bad_tokens\[2\]
*522 proc\.bad_tokens\[3\]
*523 proc\.bad_tokens\[4\]
*524 proc\.bad_tokens\[5\]
*525 proc\.bad_tokens\[6\]
*526 proc\.bad_tokens\[7\]
*527 proc\.bad_tokens_threshold\[0\]
*528 proc\.bad_tokens_threshold\[1\]
*529 proc\.bad_tokens_threshold\[2\]
*530 proc\.bad_tokens_threshold\[3\]
*531 proc\.bad_tokens_threshold\[4\]
*532 proc\.bad_tokens_threshold\[5\]
*533 proc\.bad_tokens_threshold\[6\]
*534 proc\.bad_tokens_threshold\[7\]
*535 proc\.data_out\[0\]
*536 proc\.data_out\[1\]
*537 proc\.data_out\[2\]
*538 proc\.data_out\[3\]
*539 proc\.data_out\[4\]
*540 proc\.data_out\[5\]
*541 proc\.data_out\[6\]
*542 proc\.data_out\[7\]
*543 proc\.duration\[0\]
*544 proc\.duration\[1\]
*545 proc\.duration\[2\]
*546 proc\.duration\[3\]
*547 proc\.duration\[4\]
*548 proc\.duration\[5\]
*549 proc\.duration\[6\]
*550 proc\.duration\[7\]
*551 proc\.good_tokens\[0\]
*552 proc\.good_tokens\[1\]
*553 proc\.good_tokens\[2\]
*554 proc\.good_tokens\[3\]
*555 proc\.good_tokens\[4\]
*556 proc\.good_tokens\[5\]
*557 proc\.good_tokens\[6\]
*558 proc\.good_tokens\[7\]
*559 proc\.good_tokens_threshold\[0\]
*560 proc\.good_tokens_threshold\[1\]
*561 proc\.good_tokens_threshold\[2\]
*562 proc\.good_tokens_threshold\[3\]
*563 proc\.good_tokens_threshold\[4\]
*564 proc\.good_tokens_threshold\[5\]
*565 proc\.good_tokens_threshold\[6\]
*566 proc\.good_tokens_threshold\[7\]
*567 proc\.isOn
*568 proc\.remaining_duration\[0\]
*569 proc\.remaining_duration\[1\]
*570 proc\.remaining_duration\[2\]
*571 proc\.remaining_duration\[3\]
*572 proc\.remaining_duration\[4\]
*573 proc\.remaining_duration\[5\]
*574 proc\.remaining_duration\[6\]
*575 proc\.remaining_duration\[7\]
*576 proc\.token_start
*577 proc\.token_stop
*578 ANTENNA_1
*579 ANTENNA_2
*580 FILLER_0_0_109
*581 FILLER_0_0_113
*582 FILLER_0_0_125
*583 FILLER_0_0_137
*584 FILLER_0_0_141
*585 FILLER_0_0_15
*586 FILLER_0_0_153
*587 FILLER_0_0_165
*588 FILLER_0_0_169
*589 FILLER_0_0_181
*590 FILLER_0_0_193
*591 FILLER_0_0_197
*592 FILLER_0_0_209
*593 FILLER_0_0_221
*594 FILLER_0_0_225
*595 FILLER_0_0_237
*596 FILLER_0_0_249
*597 FILLER_0_0_253
*598 FILLER_0_0_265
*599 FILLER_0_0_27
*600 FILLER_0_0_277
*601 FILLER_0_0_281
*602 FILLER_0_0_29
*603 FILLER_0_0_293
*604 FILLER_0_0_3
*605 FILLER_0_0_305
*606 FILLER_0_0_309
*607 FILLER_0_0_321
*608 FILLER_0_0_333
*609 FILLER_0_0_337
*610 FILLER_0_0_349
*611 FILLER_0_0_41
*612 FILLER_0_0_53
*613 FILLER_0_0_57
*614 FILLER_0_0_69
*615 FILLER_0_0_81
*616 FILLER_0_0_85
*617 FILLER_0_0_97
*618 FILLER_0_10_109
*619 FILLER_0_10_121
*620 FILLER_0_10_133
*621 FILLER_0_10_139
*622 FILLER_0_10_141
*623 FILLER_0_10_15
*624 FILLER_0_10_153
*625 FILLER_0_10_165
*626 FILLER_0_10_177
*627 FILLER_0_10_189
*628 FILLER_0_10_195
*629 FILLER_0_10_197
*630 FILLER_0_10_209
*631 FILLER_0_10_221
*632 FILLER_0_10_233
*633 FILLER_0_10_245
*634 FILLER_0_10_251
*635 FILLER_0_10_253
*636 FILLER_0_10_265
*637 FILLER_0_10_27
*638 FILLER_0_10_277
*639 FILLER_0_10_289
*640 FILLER_0_10_29
*641 FILLER_0_10_3
*642 FILLER_0_10_301
*643 FILLER_0_10_307
*644 FILLER_0_10_309
*645 FILLER_0_10_321
*646 FILLER_0_10_333
*647 FILLER_0_10_345
*648 FILLER_0_10_41
*649 FILLER_0_10_53
*650 FILLER_0_10_65
*651 FILLER_0_10_77
*652 FILLER_0_10_83
*653 FILLER_0_10_85
*654 FILLER_0_10_97
*655 FILLER_0_11_105
*656 FILLER_0_11_111
*657 FILLER_0_11_113
*658 FILLER_0_11_125
*659 FILLER_0_11_137
*660 FILLER_0_11_149
*661 FILLER_0_11_15
*662 FILLER_0_11_161
*663 FILLER_0_11_167
*664 FILLER_0_11_169
*665 FILLER_0_11_181
*666 FILLER_0_11_193
*667 FILLER_0_11_205
*668 FILLER_0_11_217
*669 FILLER_0_11_223
*670 FILLER_0_11_225
*671 FILLER_0_11_237
*672 FILLER_0_11_249
*673 FILLER_0_11_261
*674 FILLER_0_11_27
*675 FILLER_0_11_273
*676 FILLER_0_11_279
*677 FILLER_0_11_281
*678 FILLER_0_11_293
*679 FILLER_0_11_3
*680 FILLER_0_11_305
*681 FILLER_0_11_317
*682 FILLER_0_11_329
*683 FILLER_0_11_335
*684 FILLER_0_11_337
*685 FILLER_0_11_349
*686 FILLER_0_11_39
*687 FILLER_0_11_51
*688 FILLER_0_11_55
*689 FILLER_0_11_57
*690 FILLER_0_11_69
*691 FILLER_0_11_81
*692 FILLER_0_11_93
*693 FILLER_0_12_109
*694 FILLER_0_12_121
*695 FILLER_0_12_133
*696 FILLER_0_12_139
*697 FILLER_0_12_141
*698 FILLER_0_12_15
*699 FILLER_0_12_153
*700 FILLER_0_12_165
*701 FILLER_0_12_177
*702 FILLER_0_12_189
*703 FILLER_0_12_195
*704 FILLER_0_12_197
*705 FILLER_0_12_209
*706 FILLER_0_12_221
*707 FILLER_0_12_233
*708 FILLER_0_12_245
*709 FILLER_0_12_251
*710 FILLER_0_12_253
*711 FILLER_0_12_265
*712 FILLER_0_12_27
*713 FILLER_0_12_277
*714 FILLER_0_12_289
*715 FILLER_0_12_29
*716 FILLER_0_12_3
*717 FILLER_0_12_301
*718 FILLER_0_12_307
*719 FILLER_0_12_309
*720 FILLER_0_12_321
*721 FILLER_0_12_333
*722 FILLER_0_12_345
*723 FILLER_0_12_41
*724 FILLER_0_12_53
*725 FILLER_0_12_65
*726 FILLER_0_12_77
*727 FILLER_0_12_83
*728 FILLER_0_12_85
*729 FILLER_0_12_97
*730 FILLER_0_13_105
*731 FILLER_0_13_111
*732 FILLER_0_13_113
*733 FILLER_0_13_125
*734 FILLER_0_13_137
*735 FILLER_0_13_149
*736 FILLER_0_13_15
*737 FILLER_0_13_161
*738 FILLER_0_13_167
*739 FILLER_0_13_169
*740 FILLER_0_13_181
*741 FILLER_0_13_193
*742 FILLER_0_13_205
*743 FILLER_0_13_217
*744 FILLER_0_13_223
*745 FILLER_0_13_225
*746 FILLER_0_13_237
*747 FILLER_0_13_249
*748 FILLER_0_13_261
*749 FILLER_0_13_27
*750 FILLER_0_13_273
*751 FILLER_0_13_279
*752 FILLER_0_13_281
*753 FILLER_0_13_293
*754 FILLER_0_13_3
*755 FILLER_0_13_305
*756 FILLER_0_13_317
*757 FILLER_0_13_329
*758 FILLER_0_13_335
*759 FILLER_0_13_337
*760 FILLER_0_13_349
*761 FILLER_0_13_39
*762 FILLER_0_13_51
*763 FILLER_0_13_55
*764 FILLER_0_13_57
*765 FILLER_0_13_69
*766 FILLER_0_13_81
*767 FILLER_0_13_93
*768 FILLER_0_14_109
*769 FILLER_0_14_121
*770 FILLER_0_14_133
*771 FILLER_0_14_139
*772 FILLER_0_14_141
*773 FILLER_0_14_15
*774 FILLER_0_14_153
*775 FILLER_0_14_165
*776 FILLER_0_14_177
*777 FILLER_0_14_189
*778 FILLER_0_14_195
*779 FILLER_0_14_197
*780 FILLER_0_14_209
*781 FILLER_0_14_221
*782 FILLER_0_14_233
*783 FILLER_0_14_245
*784 FILLER_0_14_251
*785 FILLER_0_14_253
*786 FILLER_0_14_265
*787 FILLER_0_14_27
*788 FILLER_0_14_277
*789 FILLER_0_14_289
*790 FILLER_0_14_29
*791 FILLER_0_14_3
*792 FILLER_0_14_301
*793 FILLER_0_14_307
*794 FILLER_0_14_309
*795 FILLER_0_14_321
*796 FILLER_0_14_333
*797 FILLER_0_14_345
*798 FILLER_0_14_41
*799 FILLER_0_14_53
*800 FILLER_0_14_65
*801 FILLER_0_14_77
*802 FILLER_0_14_83
*803 FILLER_0_14_85
*804 FILLER_0_14_97
*805 FILLER_0_15_105
*806 FILLER_0_15_111
*807 FILLER_0_15_113
*808 FILLER_0_15_125
*809 FILLER_0_15_137
*810 FILLER_0_15_149
*811 FILLER_0_15_15
*812 FILLER_0_15_161
*813 FILLER_0_15_167
*814 FILLER_0_15_169
*815 FILLER_0_15_181
*816 FILLER_0_15_193
*817 FILLER_0_15_205
*818 FILLER_0_15_217
*819 FILLER_0_15_223
*820 FILLER_0_15_225
*821 FILLER_0_15_237
*822 FILLER_0_15_249
*823 FILLER_0_15_261
*824 FILLER_0_15_27
*825 FILLER_0_15_273
*826 FILLER_0_15_279
*827 FILLER_0_15_281
*828 FILLER_0_15_293
*829 FILLER_0_15_3
*830 FILLER_0_15_305
*831 FILLER_0_15_317
*832 FILLER_0_15_329
*833 FILLER_0_15_335
*834 FILLER_0_15_337
*835 FILLER_0_15_349
*836 FILLER_0_15_39
*837 FILLER_0_15_51
*838 FILLER_0_15_55
*839 FILLER_0_15_57
*840 FILLER_0_15_69
*841 FILLER_0_15_81
*842 FILLER_0_15_93
*843 FILLER_0_16_129
*844 FILLER_0_16_137
*845 FILLER_0_16_141
*846 FILLER_0_16_15
*847 FILLER_0_16_151
*848 FILLER_0_16_169
*849 FILLER_0_16_178
*850 FILLER_0_16_190
*851 FILLER_0_16_197
*852 FILLER_0_16_209
*853 FILLER_0_16_221
*854 FILLER_0_16_233
*855 FILLER_0_16_245
*856 FILLER_0_16_251
*857 FILLER_0_16_253
*858 FILLER_0_16_265
*859 FILLER_0_16_27
*860 FILLER_0_16_277
*861 FILLER_0_16_289
*862 FILLER_0_16_29
*863 FILLER_0_16_3
*864 FILLER_0_16_301
*865 FILLER_0_16_307
*866 FILLER_0_16_309
*867 FILLER_0_16_321
*868 FILLER_0_16_333
*869 FILLER_0_16_345
*870 FILLER_0_16_41
*871 FILLER_0_16_53
*872 FILLER_0_16_65
*873 FILLER_0_16_77
*874 FILLER_0_16_83
*875 FILLER_0_16_85
*876 FILLER_0_16_97
*877 FILLER_0_17_103
*878 FILLER_0_17_107
*879 FILLER_0_17_111
*880 FILLER_0_17_122
*881 FILLER_0_17_144
*882 FILLER_0_17_148
*883 FILLER_0_17_15
*884 FILLER_0_17_157
*885 FILLER_0_17_165
*886 FILLER_0_17_169
*887 FILLER_0_17_188
*888 FILLER_0_17_192
*889 FILLER_0_17_209
*890 FILLER_0_17_217
*891 FILLER_0_17_223
*892 FILLER_0_17_241
*893 FILLER_0_17_247
*894 FILLER_0_17_266
*895 FILLER_0_17_27
*896 FILLER_0_17_278
*897 FILLER_0_17_281
*898 FILLER_0_17_293
*899 FILLER_0_17_3
*900 FILLER_0_17_305
*901 FILLER_0_17_317
*902 FILLER_0_17_329
*903 FILLER_0_17_335
*904 FILLER_0_17_337
*905 FILLER_0_17_349
*906 FILLER_0_17_39
*907 FILLER_0_17_51
*908 FILLER_0_17_55
*909 FILLER_0_17_57
*910 FILLER_0_17_69
*911 FILLER_0_17_81
*912 FILLER_0_18_106
*913 FILLER_0_18_112
*914 FILLER_0_18_122
*915 FILLER_0_18_141
*916 FILLER_0_18_15
*917 FILLER_0_18_153
*918 FILLER_0_18_157
*919 FILLER_0_18_167
*920 FILLER_0_18_192
*921 FILLER_0_18_214
*922 FILLER_0_18_229
*923 FILLER_0_18_237
*924 FILLER_0_18_269
*925 FILLER_0_18_27
*926 FILLER_0_18_283
*927 FILLER_0_18_29
*928 FILLER_0_18_295
*929 FILLER_0_18_3
*930 FILLER_0_18_307
*931 FILLER_0_18_309
*932 FILLER_0_18_321
*933 FILLER_0_18_333
*934 FILLER_0_18_345
*935 FILLER_0_18_41
*936 FILLER_0_18_53
*937 FILLER_0_18_65
*938 FILLER_0_18_78
*939 FILLER_0_18_85
*940 FILLER_0_18_94
*941 FILLER_0_19_103
*942 FILLER_0_19_142
*943 FILLER_0_19_15
*944 FILLER_0_19_155
*945 FILLER_0_19_166
*946 FILLER_0_19_169
*947 FILLER_0_19_186
*948 FILLER_0_19_198
*949 FILLER_0_19_221
*950 FILLER_0_19_27
*951 FILLER_0_19_297
*952 FILLER_0_19_3
*953 FILLER_0_19_311
*954 FILLER_0_19_323
*955 FILLER_0_19_335
*956 FILLER_0_19_337
*957 FILLER_0_19_349
*958 FILLER_0_19_39
*959 FILLER_0_19_54
*960 FILLER_0_19_81
*961 FILLER_0_1_105
*962 FILLER_0_1_111
*963 FILLER_0_1_113
*964 FILLER_0_1_125
*965 FILLER_0_1_137
*966 FILLER_0_1_149
*967 FILLER_0_1_15
*968 FILLER_0_1_161
*969 FILLER_0_1_167
*970 FILLER_0_1_169
*971 FILLER_0_1_181
*972 FILLER_0_1_193
*973 FILLER_0_1_205
*974 FILLER_0_1_217
*975 FILLER_0_1_223
*976 FILLER_0_1_225
*977 FILLER_0_1_237
*978 FILLER_0_1_249
*979 FILLER_0_1_261
*980 FILLER_0_1_27
*981 FILLER_0_1_273
*982 FILLER_0_1_279
*983 FILLER_0_1_281
*984 FILLER_0_1_293
*985 FILLER_0_1_3
*986 FILLER_0_1_305
*987 FILLER_0_1_317
*988 FILLER_0_1_329
*989 FILLER_0_1_335
*990 FILLER_0_1_337
*991 FILLER_0_1_349
*992 FILLER_0_1_39
*993 FILLER_0_1_51
*994 FILLER_0_1_55
*995 FILLER_0_1_57
*996 FILLER_0_1_69
*997 FILLER_0_1_81
*998 FILLER_0_1_93
*999 FILLER_0_20_107
*1000 FILLER_0_20_113
*1001 FILLER_0_20_120
*1002 FILLER_0_20_129
*1003 FILLER_0_20_15
*1004 FILLER_0_20_153
*1005 FILLER_0_20_163
*1006 FILLER_0_20_175
*1007 FILLER_0_20_187
*1008 FILLER_0_20_195
*1009 FILLER_0_20_214
*1010 FILLER_0_20_223
*1011 FILLER_0_20_247
*1012 FILLER_0_20_251
*1013 FILLER_0_20_253
*1014 FILLER_0_20_27
*1015 FILLER_0_20_275
*1016 FILLER_0_20_283
*1017 FILLER_0_20_29
*1018 FILLER_0_20_291
*1019 FILLER_0_20_299
*1020 FILLER_0_20_3
*1021 FILLER_0_20_317
*1022 FILLER_0_20_329
*1023 FILLER_0_20_341
*1024 FILLER_0_20_349
*1025 FILLER_0_20_41
*1026 FILLER_0_20_45
*1027 FILLER_0_20_62
*1028 FILLER_0_20_94
*1029 FILLER_0_21_109
*1030 FILLER_0_21_137
*1031 FILLER_0_21_146
*1032 FILLER_0_21_15
*1033 FILLER_0_21_154
*1034 FILLER_0_21_167
*1035 FILLER_0_21_178
*1036 FILLER_0_21_190
*1037 FILLER_0_21_200
*1038 FILLER_0_21_212
*1039 FILLER_0_21_216
*1040 FILLER_0_21_223
*1041 FILLER_0_21_225
*1042 FILLER_0_21_236
*1043 FILLER_0_21_242
*1044 FILLER_0_21_251
*1045 FILLER_0_21_267
*1046 FILLER_0_21_27
*1047 FILLER_0_21_279
*1048 FILLER_0_21_291
*1049 FILLER_0_21_3
*1050 FILLER_0_21_301
*1051 FILLER_0_21_311
*1052 FILLER_0_21_337
*1053 FILLER_0_21_349
*1054 FILLER_0_21_39
*1055 FILLER_0_21_51
*1056 FILLER_0_21_55
*1057 FILLER_0_21_57
*1058 FILLER_0_21_81
*1059 FILLER_0_21_90
*1060 FILLER_0_22_100
*1061 FILLER_0_22_112
*1062 FILLER_0_22_119
*1063 FILLER_0_22_131
*1064 FILLER_0_22_139
*1065 FILLER_0_22_141
*1066 FILLER_0_22_145
*1067 FILLER_0_22_15
*1068 FILLER_0_22_157
*1069 FILLER_0_22_175
*1070 FILLER_0_22_192
*1071 FILLER_0_22_197
*1072 FILLER_0_22_206
*1073 FILLER_0_22_220
*1074 FILLER_0_22_235
*1075 FILLER_0_22_248
*1076 FILLER_0_22_253
*1077 FILLER_0_22_27
*1078 FILLER_0_22_270
*1079 FILLER_0_22_281
*1080 FILLER_0_22_29
*1081 FILLER_0_22_290
*1082 FILLER_0_22_3
*1083 FILLER_0_22_302
*1084 FILLER_0_22_328
*1085 FILLER_0_22_340
*1086 FILLER_0_22_348
*1087 FILLER_0_22_41
*1088 FILLER_0_22_47
*1089 FILLER_0_22_55
*1090 FILLER_0_22_81
*1091 FILLER_0_22_85
*1092 FILLER_0_23_101
*1093 FILLER_0_23_109
*1094 FILLER_0_23_137
*1095 FILLER_0_23_15
*1096 FILLER_0_23_157
*1097 FILLER_0_23_163
*1098 FILLER_0_23_167
*1099 FILLER_0_23_186
*1100 FILLER_0_23_198
*1101 FILLER_0_23_206
*1102 FILLER_0_23_221
*1103 FILLER_0_23_225
*1104 FILLER_0_23_237
*1105 FILLER_0_23_255
*1106 FILLER_0_23_261
*1107 FILLER_0_23_27
*1108 FILLER_0_23_278
*1109 FILLER_0_23_281
*1110 FILLER_0_23_292
*1111 FILLER_0_23_3
*1112 FILLER_0_23_304
*1113 FILLER_0_23_316
*1114 FILLER_0_23_337
*1115 FILLER_0_23_349
*1116 FILLER_0_23_39
*1117 FILLER_0_23_66
*1118 FILLER_0_24_110
*1119 FILLER_0_24_118
*1120 FILLER_0_24_128
*1121 FILLER_0_24_137
*1122 FILLER_0_24_141
*1123 FILLER_0_24_15
*1124 FILLER_0_24_152
*1125 FILLER_0_24_162
*1126 FILLER_0_24_174
*1127 FILLER_0_24_195
*1128 FILLER_0_24_216
*1129 FILLER_0_24_228
*1130 FILLER_0_24_247
*1131 FILLER_0_24_251
*1132 FILLER_0_24_253
*1133 FILLER_0_24_261
*1134 FILLER_0_24_268
*1135 FILLER_0_24_27
*1136 FILLER_0_24_276
*1137 FILLER_0_24_281
*1138 FILLER_0_24_29
*1139 FILLER_0_24_293
*1140 FILLER_0_24_3
*1141 FILLER_0_24_301
*1142 FILLER_0_24_318
*1143 FILLER_0_24_324
*1144 FILLER_0_24_333
*1145 FILLER_0_24_41
*1146 FILLER_0_24_53
*1147 FILLER_0_24_67
*1148 FILLER_0_24_74
*1149 FILLER_0_24_82
*1150 FILLER_0_24_85
*1151 FILLER_0_24_97
*1152 FILLER_0_25_102
*1153 FILLER_0_25_113
*1154 FILLER_0_25_134
*1155 FILLER_0_25_138
*1156 FILLER_0_25_15
*1157 FILLER_0_25_163
*1158 FILLER_0_25_199
*1159 FILLER_0_25_208
*1160 FILLER_0_25_218
*1161 FILLER_0_25_232
*1162 FILLER_0_25_244
*1163 FILLER_0_25_252
*1164 FILLER_0_25_256
*1165 FILLER_0_25_264
*1166 FILLER_0_25_27
*1167 FILLER_0_25_294
*1168 FILLER_0_25_3
*1169 FILLER_0_25_302
*1170 FILLER_0_25_309
*1171 FILLER_0_25_325
*1172 FILLER_0_25_333
*1173 FILLER_0_25_337
*1174 FILLER_0_25_349
*1175 FILLER_0_25_39
*1176 FILLER_0_25_51
*1177 FILLER_0_25_55
*1178 FILLER_0_25_81
*1179 FILLER_0_25_87
*1180 FILLER_0_25_94
*1181 FILLER_0_25_98
*1182 FILLER_0_26_105
*1183 FILLER_0_26_117
*1184 FILLER_0_26_129
*1185 FILLER_0_26_137
*1186 FILLER_0_26_141
*1187 FILLER_0_26_145
*1188 FILLER_0_26_15
*1189 FILLER_0_26_157
*1190 FILLER_0_26_169
*1191 FILLER_0_26_181
*1192 FILLER_0_26_193
*1193 FILLER_0_26_210
*1194 FILLER_0_26_222
*1195 FILLER_0_26_234
*1196 FILLER_0_26_250
*1197 FILLER_0_26_260
*1198 FILLER_0_26_27
*1199 FILLER_0_26_272
*1200 FILLER_0_26_276
*1201 FILLER_0_26_29
*1202 FILLER_0_26_290
*1203 FILLER_0_26_299
*1204 FILLER_0_26_3
*1205 FILLER_0_26_306
*1206 FILLER_0_26_317
*1207 FILLER_0_26_37
*1208 FILLER_0_26_43
*1209 FILLER_0_26_55
*1210 FILLER_0_26_63
*1211 FILLER_0_26_71
*1212 FILLER_0_26_93
*1213 FILLER_0_27_106
*1214 FILLER_0_27_131
*1215 FILLER_0_27_143
*1216 FILLER_0_27_147
*1217 FILLER_0_27_15
*1218 FILLER_0_27_159
*1219 FILLER_0_27_169
*1220 FILLER_0_27_177
*1221 FILLER_0_27_206
*1222 FILLER_0_27_231
*1223 FILLER_0_27_242
*1224 FILLER_0_27_250
*1225 FILLER_0_27_257
*1226 FILLER_0_27_27
*1227 FILLER_0_27_281
*1228 FILLER_0_27_293
*1229 FILLER_0_27_3
*1230 FILLER_0_27_301
*1231 FILLER_0_27_308
*1232 FILLER_0_27_328
*1233 FILLER_0_27_332
*1234 FILLER_0_27_337
*1235 FILLER_0_27_349
*1236 FILLER_0_27_51
*1237 FILLER_0_27_55
*1238 FILLER_0_27_66
*1239 FILLER_0_27_75
*1240 FILLER_0_27_96
*1241 FILLER_0_28_118
*1242 FILLER_0_28_127
*1243 FILLER_0_28_147
*1244 FILLER_0_28_15
*1245 FILLER_0_28_171
*1246 FILLER_0_28_212
*1247 FILLER_0_28_221
*1248 FILLER_0_28_259
*1249 FILLER_0_28_27
*1250 FILLER_0_28_288
*1251 FILLER_0_28_29
*1252 FILLER_0_28_296
*1253 FILLER_0_28_3
*1254 FILLER_0_28_321
*1255 FILLER_0_28_325
*1256 FILLER_0_28_37
*1257 FILLER_0_28_41
*1258 FILLER_0_28_53
*1259 FILLER_0_28_61
*1260 FILLER_0_28_83
*1261 FILLER_0_29_106
*1262 FILLER_0_29_133
*1263 FILLER_0_29_141
*1264 FILLER_0_29_15
*1265 FILLER_0_29_154
*1266 FILLER_0_29_166
*1267 FILLER_0_29_180
*1268 FILLER_0_29_192
*1269 FILLER_0_29_196
*1270 FILLER_0_29_207
*1271 FILLER_0_29_222
*1272 FILLER_0_29_225
*1273 FILLER_0_29_257
*1274 FILLER_0_29_27
*1275 FILLER_0_29_286
*1276 FILLER_0_29_291
*1277 FILLER_0_29_299
*1278 FILLER_0_29_3
*1279 FILLER_0_29_305
*1280 FILLER_0_29_317
*1281 FILLER_0_29_331
*1282 FILLER_0_29_335
*1283 FILLER_0_29_337
*1284 FILLER_0_29_349
*1285 FILLER_0_29_35
*1286 FILLER_0_29_45
*1287 FILLER_0_29_53
*1288 FILLER_0_29_57
*1289 FILLER_0_29_69
*1290 FILLER_0_29_73
*1291 FILLER_0_2_109
*1292 FILLER_0_2_121
*1293 FILLER_0_2_133
*1294 FILLER_0_2_139
*1295 FILLER_0_2_141
*1296 FILLER_0_2_15
*1297 FILLER_0_2_153
*1298 FILLER_0_2_165
*1299 FILLER_0_2_177
*1300 FILLER_0_2_189
*1301 FILLER_0_2_195
*1302 FILLER_0_2_197
*1303 FILLER_0_2_209
*1304 FILLER_0_2_221
*1305 FILLER_0_2_233
*1306 FILLER_0_2_245
*1307 FILLER_0_2_251
*1308 FILLER_0_2_253
*1309 FILLER_0_2_265
*1310 FILLER_0_2_27
*1311 FILLER_0_2_277
*1312 FILLER_0_2_289
*1313 FILLER_0_2_29
*1314 FILLER_0_2_3
*1315 FILLER_0_2_301
*1316 FILLER_0_2_307
*1317 FILLER_0_2_309
*1318 FILLER_0_2_321
*1319 FILLER_0_2_333
*1320 FILLER_0_2_345
*1321 FILLER_0_2_41
*1322 FILLER_0_2_53
*1323 FILLER_0_2_65
*1324 FILLER_0_2_77
*1325 FILLER_0_2_83
*1326 FILLER_0_2_85
*1327 FILLER_0_2_97
*1328 FILLER_0_30_139
*1329 FILLER_0_30_15
*1330 FILLER_0_30_157
*1331 FILLER_0_30_163
*1332 FILLER_0_30_178
*1333 FILLER_0_30_188
*1334 FILLER_0_30_195
*1335 FILLER_0_30_219
*1336 FILLER_0_30_231
*1337 FILLER_0_30_235
*1338 FILLER_0_30_245
*1339 FILLER_0_30_251
*1340 FILLER_0_30_27
*1341 FILLER_0_30_282
*1342 FILLER_0_30_288
*1343 FILLER_0_30_29
*1344 FILLER_0_30_3
*1345 FILLER_0_30_305
*1346 FILLER_0_30_309
*1347 FILLER_0_30_321
*1348 FILLER_0_30_333
*1349 FILLER_0_30_35
*1350 FILLER_0_30_52
*1351 FILLER_0_30_83
*1352 FILLER_0_30_85
*1353 FILLER_0_30_91
*1354 FILLER_0_30_98
*1355 FILLER_0_31_109
*1356 FILLER_0_31_113
*1357 FILLER_0_31_128
*1358 FILLER_0_31_140
*1359 FILLER_0_31_15
*1360 FILLER_0_31_152
*1361 FILLER_0_31_161
*1362 FILLER_0_31_167
*1363 FILLER_0_31_187
*1364 FILLER_0_31_196
*1365 FILLER_0_31_208
*1366 FILLER_0_31_212
*1367 FILLER_0_31_233
*1368 FILLER_0_31_244
*1369 FILLER_0_31_27
*1370 FILLER_0_31_270
*1371 FILLER_0_31_281
*1372 FILLER_0_31_289
*1373 FILLER_0_31_297
*1374 FILLER_0_31_3
*1375 FILLER_0_31_304
*1376 FILLER_0_31_321
*1377 FILLER_0_31_333
*1378 FILLER_0_31_346
*1379 FILLER_0_31_350
*1380 FILLER_0_31_39
*1381 FILLER_0_31_46
*1382 FILLER_0_31_54
*1383 FILLER_0_31_57
*1384 FILLER_0_31_69
*1385 FILLER_0_31_77
*1386 FILLER_0_31_97
*1387 FILLER_0_32_107
*1388 FILLER_0_32_130
*1389 FILLER_0_32_136
*1390 FILLER_0_32_15
*1391 FILLER_0_32_174
*1392 FILLER_0_32_184
*1393 FILLER_0_32_188
*1394 FILLER_0_32_204
*1395 FILLER_0_32_228
*1396 FILLER_0_32_250
*1397 FILLER_0_32_27
*1398 FILLER_0_32_282
*1399 FILLER_0_32_29
*1400 FILLER_0_32_290
*1401 FILLER_0_32_3
*1402 FILLER_0_32_306
*1403 FILLER_0_32_309
*1404 FILLER_0_32_318
*1405 FILLER_0_32_324
*1406 FILLER_0_32_333
*1407 FILLER_0_32_345
*1408 FILLER_0_32_37
*1409 FILLER_0_32_56
*1410 FILLER_0_32_80
*1411 FILLER_0_32_88
*1412 FILLER_0_32_92
*1413 FILLER_0_32_96
*1414 FILLER_0_33_113
*1415 FILLER_0_33_122
*1416 FILLER_0_33_138
*1417 FILLER_0_33_142
*1418 FILLER_0_33_149
*1419 FILLER_0_33_15
*1420 FILLER_0_33_164
*1421 FILLER_0_33_175
*1422 FILLER_0_33_191
*1423 FILLER_0_33_203
*1424 FILLER_0_33_222
*1425 FILLER_0_33_225
*1426 FILLER_0_33_237
*1427 FILLER_0_33_255
*1428 FILLER_0_33_261
*1429 FILLER_0_33_267
*1430 FILLER_0_33_27
*1431 FILLER_0_33_281
*1432 FILLER_0_33_285
*1433 FILLER_0_33_296
*1434 FILLER_0_33_3
*1435 FILLER_0_33_305
*1436 FILLER_0_33_335
*1437 FILLER_0_33_337
*1438 FILLER_0_33_348
*1439 FILLER_0_33_39
*1440 FILLER_0_33_51
*1441 FILLER_0_33_55
*1442 FILLER_0_33_57
*1443 FILLER_0_33_65
*1444 FILLER_0_33_70
*1445 FILLER_0_33_82
*1446 FILLER_0_34_108
*1447 FILLER_0_34_116
*1448 FILLER_0_34_121
*1449 FILLER_0_34_133
*1450 FILLER_0_34_139
*1451 FILLER_0_34_148
*1452 FILLER_0_34_15
*1453 FILLER_0_34_161
*1454 FILLER_0_34_173
*1455 FILLER_0_34_177
*1456 FILLER_0_34_185
*1457 FILLER_0_34_220
*1458 FILLER_0_34_241
*1459 FILLER_0_34_269
*1460 FILLER_0_34_27
*1461 FILLER_0_34_275
*1462 FILLER_0_34_289
*1463 FILLER_0_34_29
*1464 FILLER_0_34_293
*1465 FILLER_0_34_3
*1466 FILLER_0_34_306
*1467 FILLER_0_34_309
*1468 FILLER_0_34_321
*1469 FILLER_0_34_41
*1470 FILLER_0_34_53
*1471 FILLER_0_34_61
*1472 FILLER_0_34_78
*1473 FILLER_0_34_93
*1474 FILLER_0_35_122
*1475 FILLER_0_35_143
*1476 FILLER_0_35_147
*1477 FILLER_0_35_15
*1478 FILLER_0_35_157
*1479 FILLER_0_35_176
*1480 FILLER_0_35_183
*1481 FILLER_0_35_193
*1482 FILLER_0_35_205
*1483 FILLER_0_35_223
*1484 FILLER_0_35_225
*1485 FILLER_0_35_244
*1486 FILLER_0_35_256
*1487 FILLER_0_35_264
*1488 FILLER_0_35_27
*1489 FILLER_0_35_273
*1490 FILLER_0_35_279
*1491 FILLER_0_35_281
*1492 FILLER_0_35_287
*1493 FILLER_0_35_291
*1494 FILLER_0_35_3
*1495 FILLER_0_35_302
*1496 FILLER_0_35_310
*1497 FILLER_0_35_317
*1498 FILLER_0_35_331
*1499 FILLER_0_35_335
*1500 FILLER_0_35_337
*1501 FILLER_0_35_348
*1502 FILLER_0_35_39
*1503 FILLER_0_35_51
*1504 FILLER_0_35_55
*1505 FILLER_0_35_57
*1506 FILLER_0_35_61
*1507 FILLER_0_35_69
*1508 FILLER_0_35_81
*1509 FILLER_0_36_109
*1510 FILLER_0_36_128
*1511 FILLER_0_36_136
*1512 FILLER_0_36_15
*1513 FILLER_0_36_168
*1514 FILLER_0_36_192
*1515 FILLER_0_36_208
*1516 FILLER_0_36_220
*1517 FILLER_0_36_224
*1518 FILLER_0_36_232
*1519 FILLER_0_36_237
*1520 FILLER_0_36_249
*1521 FILLER_0_36_259
*1522 FILLER_0_36_27
*1523 FILLER_0_36_29
*1524 FILLER_0_36_293
*1525 FILLER_0_36_3
*1526 FILLER_0_36_301
*1527 FILLER_0_36_307
*1528 FILLER_0_36_309
*1529 FILLER_0_36_321
*1530 FILLER_0_36_41
*1531 FILLER_0_36_53
*1532 FILLER_0_36_79
*1533 FILLER_0_36_83
*1534 FILLER_0_37_106
*1535 FILLER_0_37_142
*1536 FILLER_0_37_15
*1537 FILLER_0_37_150
*1538 FILLER_0_37_183
*1539 FILLER_0_37_192
*1540 FILLER_0_37_223
*1541 FILLER_0_37_239
*1542 FILLER_0_37_257
*1543 FILLER_0_37_267
*1544 FILLER_0_37_27
*1545 FILLER_0_37_281
*1546 FILLER_0_37_287
*1547 FILLER_0_37_294
*1548 FILLER_0_37_3
*1549 FILLER_0_37_324
*1550 FILLER_0_37_337
*1551 FILLER_0_37_349
*1552 FILLER_0_37_39
*1553 FILLER_0_37_51
*1554 FILLER_0_37_55
*1555 FILLER_0_37_57
*1556 FILLER_0_37_69
*1557 FILLER_0_37_88
*1558 FILLER_0_37_92
*1559 FILLER_0_37_98
*1560 FILLER_0_38_110
*1561 FILLER_0_38_116
*1562 FILLER_0_38_122
*1563 FILLER_0_38_128
*1564 FILLER_0_38_134
*1565 FILLER_0_38_147
*1566 FILLER_0_38_15
*1567 FILLER_0_38_158
*1568 FILLER_0_38_166
*1569 FILLER_0_38_169
*1570 FILLER_0_38_183
*1571 FILLER_0_38_193
*1572 FILLER_0_38_201
*1573 FILLER_0_38_222
*1574 FILLER_0_38_231
*1575 FILLER_0_38_236
*1576 FILLER_0_38_242
*1577 FILLER_0_38_248
*1578 FILLER_0_38_27
*1579 FILLER_0_38_270
*1580 FILLER_0_38_278
*1581 FILLER_0_38_29
*1582 FILLER_0_38_290
*1583 FILLER_0_38_3
*1584 FILLER_0_38_307
*1585 FILLER_0_38_318
*1586 FILLER_0_38_332
*1587 FILLER_0_38_337
*1588 FILLER_0_38_349
*1589 FILLER_0_38_41
*1590 FILLER_0_38_53
*1591 FILLER_0_38_57
*1592 FILLER_0_38_82
*1593 FILLER_0_38_94
*1594 FILLER_0_3_105
*1595 FILLER_0_3_111
*1596 FILLER_0_3_113
*1597 FILLER_0_3_125
*1598 FILLER_0_3_137
*1599 FILLER_0_3_149
*1600 FILLER_0_3_15
*1601 FILLER_0_3_161
*1602 FILLER_0_3_167
*1603 FILLER_0_3_169
*1604 FILLER_0_3_181
*1605 FILLER_0_3_193
*1606 FILLER_0_3_205
*1607 FILLER_0_3_217
*1608 FILLER_0_3_223
*1609 FILLER_0_3_225
*1610 FILLER_0_3_237
*1611 FILLER_0_3_249
*1612 FILLER_0_3_261
*1613 FILLER_0_3_27
*1614 FILLER_0_3_273
*1615 FILLER_0_3_279
*1616 FILLER_0_3_281
*1617 FILLER_0_3_293
*1618 FILLER_0_3_3
*1619 FILLER_0_3_305
*1620 FILLER_0_3_317
*1621 FILLER_0_3_329
*1622 FILLER_0_3_335
*1623 FILLER_0_3_337
*1624 FILLER_0_3_349