*SPEF "ieee 1481-1999"
*DESIGN "tt_um_wokwi_376553022662786049"
*DATE "11:11:11 Fri 11 11, 1111"
*VENDOR "OpenRCX"
*PROGRAM "Parallel Extraction"
*VERSION "1.0"
*DESIGN_FLOW "NAME_SCOPE LOCAL" "PIN_CAP NONE"
*DIVIDER /
*DELIMITER :
*BUS_DELIMITER []
*T_UNIT 1 NS
*C_UNIT 1 PF
*R_UNIT 1 OHM
*L_UNIT 1 HENRY

*NAME_MAP
*3 clk
*4 ena
*5 rst_n
*6 ui_in[0]
*7 ui_in[1]
*8 ui_in[2]
*9 ui_in[3]
*10 ui_in[4]
*11 ui_in[5]
*12 ui_in[6]
*13 ui_in[7]
*14 uio_in[0]
*15 uio_in[1]
*16 uio_in[2]
*17 uio_in[3]
*18 uio_in[4]
*19 uio_in[5]
*20 uio_in[6]
*21 uio_in[7]
*22 net15
*23 net16
*24 net17
*25 net18
*26 net19
*27 net11
*28 net12
*29 net20
*30 uio_out[0]
*31 uio_out[1]
*32 uio_out[2]
*33 uio_out[3]
*34 uio_out[4]
*35 net13
*36 net14
*37 uio_out[7]
*38 uo_out[0]
*39 uo_out[1]
*40 uo_out[2]
*41 uo_out[3]
*42 uo_out[4]
*43 uo_out[5]
*44 uo_out[6]
*45 uo_out[7]
*46 _000_
*47 _001_
*48 _002_
*49 _003_
*50 _004_
*51 _005_
*52 _006_
*53 _007_
*54 _008_
*55 _009_
*56 _010_
*57 _011_
*58 _012_
*59 _013_
*60 _014_
*61 _015_
*62 _016_
*63 _017_
*64 _018_
*65 _019_
*66 _020_
*67 _021_
*68 _022_
*69 _023_
*70 _024_
*71 _025_
*72 _026_
*73 _027_
*74 _028_
*75 _029_
*76 _030_
*77 _031_
*78 _032_
*79 _033_
*80 _034_
*81 _035_
*82 _036_
*83 _037_
*84 _038_
*85 _039_
*86 _040_
*87 _041_
*88 _042_
*89 _043_
*90 _044_
*91 _045_
*92 _046_
*93 _047_
*94 _048_
*95 _049_
*96 _050_
*97 _051_
*98 _052_
*99 _053_
*100 _054_
*101 _055_
*102 _056_
*103 _057_
*104 _058_
*105 _059_
*106 _060_
*107 _061_
*108 _062_
*109 _063_
*110 _064_
*111 _065_
*112 _066_
*113 _067_
*114 _068_
*115 _069_
*116 _070_
*117 _071_
*118 _072_
*119 _073_
*120 _074_
*121 _075_
*122 _076_
*123 _077_
*124 _078_
*125 _079_
*126 _080_
*127 _081_
*128 _082_
*129 _083_
*130 _084_
*131 _085_
*132 _086_
*133 _087_
*134 _088_
*135 _089_
*136 _090_
*137 _091_
*138 _092_
*139 _093_
*140 _094_
*141 _095_
*142 _096_
*143 _097_
*144 _098_
*145 _099_
*146 _100_
*147 _101_
*148 _102_
*149 _103_
*150 _104_
*151 _105_
*152 _106_
*153 _107_
*154 _108_
*155 _109_
*156 _110_
*157 _111_
*158 _112_
*159 _113_
*160 _114_
*161 _115_
*162 _116_
*163 _117_
*164 _118_
*165 _119_
*166 _120_
*167 _121_
*168 _122_
*169 _123_
*170 _124_
*171 _125_
*172 _126_
*173 _127_
*174 _128_
*175 _129_
*176 _130_
*177 _131_
*178 _132_
*179 _133_
*180 _134_
*181 _135_
*182 _136_
*183 _137_
*184 _138_
*185 _139_
*186 _140_
*187 _141_
*188 _142_
*189 _143_
*190 _144_
*191 _145_
*192 _146_
*193 _147_
*194 _148_
*195 _149_
*196 _150_
*197 _151_
*198 _152_
*199 _153_
*200 _154_
*201 _155_
*202 _156_
*203 _157_
*204 _158_
*205 _159_
*206 _160_
*207 _161_
*208 _162_
*209 _163_
*210 _164_
*211 _165_
*212 and1\.a
*213 and1\.b
*214 and1\.out
*215 and10\.a
*216 and10\.b
*217 and100\.b
*218 and101\.b
*219 and102\.b
*220 and103\.a
*221 and103\.b
*222 and104\.b
*223 and104\.out
*224 and105\.a
*225 and105\.b
*226 and106\.a
*227 and106\.b
*228 and106\.out
*229 and107\.a
*230 and107\.b
*231 and108\.b
*232 and108\.out
*233 and109\.b
*234 and109\.out
*235 and11\.b
*236 and110\.a
*237 and110\.b
*238 and111\.b
*239 and112\.a
*240 and112\.b
*241 and113\.b
*242 and114\.a
*243 and114\.b
*244 and115\.b
*245 and116\.a
*246 and116\.b
*247 and117\.b
*248 and118\.a
*249 and118\.b
*250 and119\.b
*251 and12\.b
*252 and13\.b
*253 and13\.out
*254 and14\.a
*255 and14\.b
*256 and15\.b
*257 and16\.b
*258 and16\.out
*259 and17\.a
*260 and17\.b
*261 and17\.out
*262 and18\.a
*263 and18\.b
*264 and19\.b
*265 and2\.a
*266 and2\.b
*267 and20\.b
*268 and21\.a
*269 and21\.b
*270 and22\.b
*271 and23\.out
*272 and24\.a
*273 and24\.b
*274 and25\.b
*275 and26\.a
*276 and26\.b
*277 and27\.b
*278 and27\.out
*279 and28\.a
*280 and28\.b
*281 and28\.out
*282 and29\.a
*283 and29\.b
*284 and3\.a
*285 and3\.b
*286 and30\.b
*287 and30\.out
*288 and31\.a
*289 and31\.b
*290 and32\.b
*291 and33\.out
*292 and34\.a
*293 and34\.b
*294 and35\.b
*295 and35\.out
*296 and36\.a
*297 and36\.b
*298 and37\.b
*299 and38\.b
*300 and39\.b
*301 and39\.out
*302 and4\.b
*303 and4\.out
*304 and40\.a
*305 and40\.b
*306 and41\.b
*307 and42\.b
*308 and43\.b
*309 and43\.out
*310 and44\.a
*311 and44\.b
*312 and45\.b
*313 and46\.b
*314 and47\.b
*315 and47\.out
*316 and48\.a
*317 and48\.b
*318 and49\.b
*319 and5\.b
*320 and5\.out
*321 and50\.b
*322 and51\.b
*323 and52\.a
*324 and52\.b
*325 and53\.b
*326 and54\.b
*327 and55\.b
*328 and56\.a
*329 and56\.b
*330 and57\.b
*331 and58\.b
*332 and59\.b
*333 and6\.a
*334 and6\.b
*335 and6\.out
*336 and60\.a
*337 and60\.b
*338 and61\.b
*339 and62\.b
*340 and63\.b
*341 and64\.a
*342 and64\.b
*343 and65\.b
*344 and66\.b
*345 and67\.b
*346 and67\.out
*347 and68\.a
*348 and68\.b
*349 and69\.b
*350 and7\.a
*351 and7\.b
*352 and70\.b
*353 and71\.b
*354 and72\.a
*355 and72\.b
*356 and72\.out
*357 and73\.a
*358 and73\.b
*359 and73\.out
*360 and74\.a
*361 and74\.b
*362 and74\.out
*363 and75\.a
*364 and75\.b
*365 and75\.out
*366 and76\.a
*367 and76\.b
*368 and77\.a
*369 and77\.b
*370 and78\.b
*371 and79\.a
*372 and79\.b
*373 and8\.b
*374 and8\.out
*375 and80\.b
*376 and81\.a
*377 and81\.b
*378 and82\.b
*379 and83\.b
*380 and84\.b
*381 and84\.out
*382 and85\.a
*383 and85\.b
*384 and86\.b
*385 and87\.a
*386 and87\.b
*387 and88\.b
*388 and89\.b
*389 and9\.a
*390 and9\.b
*391 and9\.out
*392 and90\.b
*393 and91\.a
*394 and91\.b
*395 and92\.b
*396 and93\.a
*397 and93\.b
*398 and94\.b
*399 and95\.b
*400 and96\.b
*401 and97\.a
*402 and97\.b
*403 and98\.b
*404 and99\.a
*405 and99\.b
*406 clknet_0_clk
*407 clknet_0_flop151\.clk
*408 clknet_1_0__leaf_clk
*409 clknet_1_0__leaf_flop151\.clk
*410 clknet_1_1__leaf_clk
*411 clknet_1_1__leaf_flop151\.clk
*412 flop1\.d
*413 flop1\.q
*414 flop10\.d
*415 flop100\.clk
*416 flop100\.d
*417 flop101\.d
*418 flop102\.d
*419 flop103\.d
*420 flop104\.d
*421 flop105\.d
*422 flop106\.d
*423 flop107\.d
*424 flop108\.d
*425 flop109\.d
*426 flop11\.d
*427 flop110\.d
*428 flop111\.d
*429 flop112\.d
*430 flop113\.d
*431 flop114\.d
*432 flop115\.d
*433 flop116\.d
*434 flop117\.d
*435 flop118\.d
*436 flop119\.d
*437 flop12\.d
*438 flop120\.d
*439 flop121\.d
*440 flop122\.d
*441 flop123\.d
*442 flop124\.d
*443 flop125\.d
*444 flop126\.d
*445 flop127\.d
*446 flop128\.d
*447 flop129\.d
*448 flop13\.d
*449 flop130\.d
*450 flop131\.d
*451 flop132\.d
*452 flop133\.d
*453 flop134\.d
*454 flop135\.d
*455 flop136\.d
*456 flop137\.d
*457 flop138\.d
*458 flop139\.d
*459 flop14\.d
*460 flop140\.d
*461 flop141\.d
*462 flop142\.d
*463 flop143\.d
*464 flop144\.d
*465 flop145\.d
*466 flop146\.d
*467 flop147\.d
*468 flop148\.d
*469 flop149\.d
*470 flop15\.d
*471 flop150\.d
*472 flop151\.clk
*473 flop151\.d
*474 flop152\.d
*475 flop153\.d
*476 flop154\.clk
*477 flop154\.d
*478 flop155\.d
*479 flop156\.d
*480 flop158\.d
*481 flop159\.d
*482 flop16\.d
*483 flop160\.d
*484 flop161\.d
*485 flop162\.d
*486 flop163\.d
*487 flop164\.d
*488 flop165\.d
*489 flop166\.clk
*490 flop166\.d
*491 flop167\.d
*492 flop168\.d
*493 flop169\.clk
*494 flop169\.d
*495 flop17\.d
*496 flop170\.d
*497 flop171\.d
*498 flop18\.d
*499 flop19\.d
*500 flop2\.q
*501 flop20\.d
*502 flop21\.d
*503 flop22\.d
*504 flop23\.d
*505 flop24\.d
*506 flop25\.d
*507 flop26\.d
*508 flop27\.d
*509 flop28\.d
*510 flop29\.d
*511 flop3\.q
*512 flop30\.d
*513 flop31\.d
*514 flop32\.d
*515 flop33\.d
*516 flop34\.d
*517 flop35\.d
*518 flop36\.d
*519 flop37\.d
*520 flop38\.d
*521 flop39\.d
*522 flop4\.q
*523 flop40\.q
*524 flop41\.d
*525 flop42\.d
*526 flop43\.d
*527 flop44\.d
*528 flop45\.d
*529 flop46\.d
*530 flop47\.d
*531 flop48\.d
*532 flop49\.d
*533 flop5\.d
*534 flop50\.d
*535 flop51\.d
*536 flop52\.d
*537 flop53\.d
*538 flop54\.d
*539 flop55\.d
*540 flop56\.d
*541 flop57\.d
*542 flop58\.d
*543 flop59\.d
*544 flop6\.d
*545 flop60\.d
*546 flop61\.d
*547 flop62\.d
*548 flop63\.d
*549 flop64\.d
*550 flop65\.d
*551 flop66\.d
*552 flop67\.d
*553 flop68\.d
*554 flop69\.d
*555 flop7\.d
*556 flop70\.d
*557 flop71\.d
*558 flop72\.d
*559 flop73\.d
*560 flop74\.d
*561 flop75\.d
*562 flop76\.d
*563 flop77\.d
*564 flop78\.d
*565 flop79\.d
*566 flop8\.d
*567 flop80\.d
*568 flop81\.d
*569 flop82\.d
*570 flop83\.d
*571 flop84\.d
*572 flop85\.d
*573 flop86\.d
*574 flop87\.d
*575 flop88\.d
*576 flop89\.d
*577 flop9\.d
*578 flop90\.d
*579 flop91\.d
*580 flop92\.d
*581 flop93\.d
*582 flop94\.d
*583 flop95\.d
*584 flop96\.d
*585 flop97\.d
*586 flop98\.d
*587 mux2\.out
*588 net1
*589 net10
*590 net2
*591 net21
*592 net22
*593 net23
*594 net24
*595 net25
*596 net26
*597 net27
*598 net28
*599 net29
*600 net3
*601 net30
*602 net31
*603 net32
*604 net33
*605 net34
*606 net35
*607 net36
*608 net4
*609 net5
*610 net6
*611 net7
*612 net8
*613 net9
*614 or4\.out
*615 or6\.out
*616 or7\.out
*617 or8\.out
*618 FILLER_0_0_109
*619 FILLER_0_0_113
*620 FILLER_0_0_125
*621 FILLER_0_0_137
*622 FILLER_0_0_141
*623 FILLER_0_0_15
*624 FILLER_0_0_153
*625 FILLER_0_0_165
*626 FILLER_0_0_169
*627 FILLER_0_0_181
*628 FILLER_0_0_193
*629 FILLER_0_0_197
*630 FILLER_0_0_209
*631 FILLER_0_0_221
*632 FILLER_0_0_225
*633 FILLER_0_0_237
*634 FILLER_0_0_249
*635 FILLER_0_0_253
*636 FILLER_0_0_265
*637 FILLER_0_0_27
*638 FILLER_0_0_277
*639 FILLER_0_0_281
*640 FILLER_0_0_29
*641 FILLER_0_0_293
*642 FILLER_0_0_3
*643 FILLER_0_0_305
*644 FILLER_0_0_309
*645 FILLER_0_0_321
*646 FILLER_0_0_333
*647 FILLER_0_0_337
*648 FILLER_0_0_349
*649 FILLER_0_0_41
*650 FILLER_0_0_53
*651 FILLER_0_0_57
*652 FILLER_0_0_69
*653 FILLER_0_0_81
*654 FILLER_0_0_85
*655 FILLER_0_0_97
*656 FILLER_0_10_109
*657 FILLER_0_10_121
*658 FILLER_0_10_133
*659 FILLER_0_10_139
*660 FILLER_0_10_141
*661 FILLER_0_10_15
*662 FILLER_0_10_153
*663 FILLER_0_10_165
*664 FILLER_0_10_177
*665 FILLER_0_10_189
*666 FILLER_0_10_195
*667 FILLER_0_10_197
*668 FILLER_0_10_209
*669 FILLER_0_10_221
*670 FILLER_0_10_233
*671 FILLER_0_10_245
*672 FILLER_0_10_251
*673 FILLER_0_10_253
*674 FILLER_0_10_265
*675 FILLER_0_10_27
*676 FILLER_0_10_277
*677 FILLER_0_10_289
*678 FILLER_0_10_29
*679 FILLER_0_10_3
*680 FILLER_0_10_301
*681 FILLER_0_10_307
*682 FILLER_0_10_309
*683 FILLER_0_10_321
*684 FILLER_0_10_333
*685 FILLER_0_10_345
*686 FILLER_0_10_41
*687 FILLER_0_10_53
*688 FILLER_0_10_65
*689 FILLER_0_10_77
*690 FILLER_0_10_83
*691 FILLER_0_10_85
*692 FILLER_0_10_97
*693 FILLER_0_11_105
*694 FILLER_0_11_111
*695 FILLER_0_11_113
*696 FILLER_0_11_125
*697 FILLER_0_11_137
*698 FILLER_0_11_149
*699 FILLER_0_11_15
*700 FILLER_0_11_161
*701 FILLER_0_11_167
*702 FILLER_0_11_169
*703 FILLER_0_11_181
*704 FILLER_0_11_193
*705 FILLER_0_11_205
*706 FILLER_0_11_217
*707 FILLER_0_11_223
*708 FILLER_0_11_225
*709 FILLER_0_11_237
*710 FILLER_0_11_249
*711 FILLER_0_11_261
*712 FILLER_0_11_27
*713 FILLER_0_11_273
*714 FILLER_0_11_279
*715 FILLER_0_11_281
*716 FILLER_0_11_293
*717 FILLER_0_11_3
*718 FILLER_0_11_305
*719 FILLER_0_11_317
*720 FILLER_0_11_329
*721 FILLER_0_11_335
*722 FILLER_0_11_337
*723 FILLER_0_11_349
*724 FILLER_0_11_39
*725 FILLER_0_11_51
*726 FILLER_0_11_55
*727 FILLER_0_11_57
*728 FILLER_0_11_69
*729 FILLER_0_11_81
*730 FILLER_0_11_93
*731 FILLER_0_12_106
*732 FILLER_0_12_118
*733 FILLER_0_12_130
*734 FILLER_0_12_138
*735 FILLER_0_12_141
*736 FILLER_0_12_15
*737 FILLER_0_12_153
*738 FILLER_0_12_165
*739 FILLER_0_12_177
*740 FILLER_0_12_189
*741 FILLER_0_12_195
*742 FILLER_0_12_197
*743 FILLER_0_12_209
*744 FILLER_0_12_221
*745 FILLER_0_12_233
*746 FILLER_0_12_245
*747 FILLER_0_12_251
*748 FILLER_0_12_253
*749 FILLER_0_12_265
*750 FILLER_0_12_27
*751 FILLER_0_12_277
*752 FILLER_0_12_289
*753 FILLER_0_12_29
*754 FILLER_0_12_3
*755 FILLER_0_12_301
*756 FILLER_0_12_307
*757 FILLER_0_12_309
*758 FILLER_0_12_321
*759 FILLER_0_12_333
*760 FILLER_0_12_345
*761 FILLER_0_12_41
*762 FILLER_0_12_53
*763 FILLER_0_12_65
*764 FILLER_0_12_77
*765 FILLER_0_12_83
*766 FILLER_0_12_85
*767 FILLER_0_12_97
*768 FILLER_0_13_113
*769 FILLER_0_13_125
*770 FILLER_0_13_137
*771 FILLER_0_13_149
*772 FILLER_0_13_15
*773 FILLER_0_13_161
*774 FILLER_0_13_167
*775 FILLER_0_13_169
*776 FILLER_0_13_181
*777 FILLER_0_13_193
*778 FILLER_0_13_197
*779 FILLER_0_13_201
*780 FILLER_0_13_208
*781 FILLER_0_13_217
*782 FILLER_0_13_221
*783 FILLER_0_13_225
*784 FILLER_0_13_237
*785 FILLER_0_13_249
*786 FILLER_0_13_261
*787 FILLER_0_13_27
*788 FILLER_0_13_273
*789 FILLER_0_13_279
*790 FILLER_0_13_281
*791 FILLER_0_13_293
*792 FILLER_0_13_3
*793 FILLER_0_13_305
*794 FILLER_0_13_317
*795 FILLER_0_13_329
*796 FILLER_0_13_335
*797 FILLER_0_13_337
*798 FILLER_0_13_349
*799 FILLER_0_13_39
*800 FILLER_0_13_51
*801 FILLER_0_13_55
*802 FILLER_0_13_57
*803 FILLER_0_13_69
*804 FILLER_0_13_81
*805 FILLER_0_13_93
*806 FILLER_0_14_100
*807 FILLER_0_14_109
*808 FILLER_0_14_117
*809 FILLER_0_14_122
*810 FILLER_0_14_134
*811 FILLER_0_14_141
*812 FILLER_0_14_145
*813 FILLER_0_14_15
*814 FILLER_0_14_157
*815 FILLER_0_14_169
*816 FILLER_0_14_177
*817 FILLER_0_14_232
*818 FILLER_0_14_244
*819 FILLER_0_14_253
*820 FILLER_0_14_265
*821 FILLER_0_14_27
*822 FILLER_0_14_277
*823 FILLER_0_14_289
*824 FILLER_0_14_29
*825 FILLER_0_14_3
*826 FILLER_0_14_301
*827 FILLER_0_14_307
*828 FILLER_0_14_309
*829 FILLER_0_14_321
*830 FILLER_0_14_333
*831 FILLER_0_14_345
*832 FILLER_0_14_38
*833 FILLER_0_14_47
*834 FILLER_0_14_62
*835 FILLER_0_14_74
*836 FILLER_0_14_80
*837 FILLER_0_14_85
*838 FILLER_0_14_92
*839 FILLER_0_15_107
*840 FILLER_0_15_111
*841 FILLER_0_15_132
*842 FILLER_0_15_15
*843 FILLER_0_15_152
*844 FILLER_0_15_164
*845 FILLER_0_15_169
*846 FILLER_0_15_181
*847 FILLER_0_15_203
*848 FILLER_0_15_211
*849 FILLER_0_15_215
*850 FILLER_0_15_219
*851 FILLER_0_15_223
*852 FILLER_0_15_225
*853 FILLER_0_15_237
*854 FILLER_0_15_249
*855 FILLER_0_15_257
*856 FILLER_0_15_272
*857 FILLER_0_15_277
*858 FILLER_0_15_281
*859 FILLER_0_15_293
*860 FILLER_0_15_3
*861 FILLER_0_15_305
*862 FILLER_0_15_317
*863 FILLER_0_15_329
*864 FILLER_0_15_335
*865 FILLER_0_15_337
*866 FILLER_0_15_349
*867 FILLER_0_15_35
*868 FILLER_0_15_73
*869 FILLER_0_15_90
*870 FILLER_0_16_105
*871 FILLER_0_16_113
*872 FILLER_0_16_123
*873 FILLER_0_16_135
*874 FILLER_0_16_141
*875 FILLER_0_16_15
*876 FILLER_0_16_173
*877 FILLER_0_16_185
*878 FILLER_0_16_192
*879 FILLER_0_16_197
*880 FILLER_0_16_209
*881 FILLER_0_16_23
*882 FILLER_0_16_251
*883 FILLER_0_16_269
*884 FILLER_0_16_287
*885 FILLER_0_16_29
*886 FILLER_0_16_299
*887 FILLER_0_16_3
*888 FILLER_0_16_307
*889 FILLER_0_16_309
*890 FILLER_0_16_321
*891 FILLER_0_16_333
*892 FILLER_0_16_345
*893 FILLER_0_16_41
*894 FILLER_0_16_45
*895 FILLER_0_16_51
*896 FILLER_0_16_63
*897 FILLER_0_16_71
*898 FILLER_0_16_76
*899 FILLER_0_16_85
*900 FILLER_0_16_89
*901 FILLER_0_16_93
*902 FILLER_0_17_109
*903 FILLER_0_17_113
*904 FILLER_0_17_133
*905 FILLER_0_17_141
*906 FILLER_0_17_15
*907 FILLER_0_17_153
*908 FILLER_0_17_161
*909 FILLER_0_17_166
*910 FILLER_0_17_185
*911 FILLER_0_17_189
*912 FILLER_0_17_193
*913 FILLER_0_17_205
*914 FILLER_0_17_218
*915 FILLER_0_17_225
*916 FILLER_0_17_233
*917 FILLER_0_17_238
*918 FILLER_0_17_253
*919 FILLER_0_17_259
*920 FILLER_0_17_271
*921 FILLER_0_17_279
*922 FILLER_0_17_281
*923 FILLER_0_17_293
*924 FILLER_0_17_3
*925 FILLER_0_17_305
*926 FILLER_0_17_317
*927 FILLER_0_17_329
*928 FILLER_0_17_335
*929 FILLER_0_17_337
*930 FILLER_0_17_349
*931 FILLER_0_17_36
*932 FILLER_0_17_40
*933 FILLER_0_17_44
*934 FILLER_0_17_53
*935 FILLER_0_17_60
*936 FILLER_0_17_81
*937 FILLER_0_18_108
*938 FILLER_0_18_114
*939 FILLER_0_18_118
*940 FILLER_0_18_124
*941 FILLER_0_18_136
*942 FILLER_0_18_141
*943 FILLER_0_18_15
*944 FILLER_0_18_161
*945 FILLER_0_18_178
*946 FILLER_0_18_190
*947 FILLER_0_18_21
*948 FILLER_0_18_213
*949 FILLER_0_18_228
*950 FILLER_0_18_25
*951 FILLER_0_18_250
*952 FILLER_0_18_272
*953 FILLER_0_18_284
*954 FILLER_0_18_29
*955 FILLER_0_18_292
*956 FILLER_0_18_297
*957 FILLER_0_18_3
*958 FILLER_0_18_305
*959 FILLER_0_18_309
*960 FILLER_0_18_321
*961 FILLER_0_18_33
*962 FILLER_0_18_333
*963 FILLER_0_18_345
*964 FILLER_0_18_61
*965 FILLER_0_18_76
*966 FILLER_0_18_85
*967 FILLER_0_18_93
*968 FILLER_0_18_99
*969 FILLER_0_19_113
*970 FILLER_0_19_149
*971 FILLER_0_19_15
*972 FILLER_0_19_161
*973 FILLER_0_19_169
*974 FILLER_0_19_198
*975 FILLER_0_19_206
*976 FILLER_0_19_241
*977 FILLER_0_19_249
*978 FILLER_0_19_253
*979 FILLER_0_19_265
*980 FILLER_0_19_269
*981 FILLER_0_19_27
*982 FILLER_0_19_278
*983 FILLER_0_19_281
*984 FILLER_0_19_287
*985 FILLER_0_19_3
*986 FILLER_0_19_307
*987 FILLER_0_19_319
*988 FILLER_0_19_331
*989 FILLER_0_19_335
*990 FILLER_0_19_337
*991 FILLER_0_19_349
*992 FILLER_0_19_39
*993 FILLER_0_19_44
*994 FILLER_0_19_73
*995 FILLER_0_19_93
*996 FILLER_0_1_105
*997 FILLER_0_1_111
*998 FILLER_0_1_113
*999 FILLER_0_1_125
*1000 FILLER_0_1_137
*1001 FILLER_0_1_149
*1002 FILLER_0_1_15
*1003 FILLER_0_1_161
*1004 FILLER_0_1_167
*1005 FILLER_0_1_169
*1006 FILLER_0_1_181
*1007 FILLER_0_1_193
*1008 FILLER_0_1_205
*1009 FILLER_0_1_217
*1010 FILLER_0_1_223
*1011 FILLER_0_1_225
*1012 FILLER_0_1_237
*1013 FILLER_0_1_249
*1014 FILLER_0_1_261
*1015 FILLER_0_1_27
*1016 FILLER_0_1_273
*1017 FILLER_0_1_279
*1018 FILLER_0_1_281
*1019 FILLER_0_1_293
*1020 FILLER_0_1_3
*1021 FILLER_0_1_305
*1022 FILLER_0_1_317
*1023 FILLER_0_1_329
*1024 FILLER_0_1_335
*1025 FILLER_0_1_337
*1026 FILLER_0_1_349
*1027 FILLER_0_1_39
*1028 FILLER_0_1_51
*1029 FILLER_0_1_55
*1030 FILLER_0_1_57
*1031 FILLER_0_1_69
*1032 FILLER_0_1_81
*1033 FILLER_0_1_93
*1034 FILLER_0_20_103
*1035 FILLER_0_20_115
*1036 FILLER_0_20_130
*1037 FILLER_0_20_136
*1038 FILLER_0_20_141
*1039 FILLER_0_20_15
*1040 FILLER_0_20_153
*1041 FILLER_0_20_157
*1042 FILLER_0_20_174
*1043 FILLER_0_20_179
*1044 FILLER_0_20_188
*1045 FILLER_0_20_197
*1046 FILLER_0_20_204
*1047 FILLER_0_20_212
*1048 FILLER_0_20_231
*1049 FILLER_0_20_251
*1050 FILLER_0_20_253
*1051 FILLER_0_20_259
*1052 FILLER_0_20_263
*1053 FILLER_0_20_27
*1054 FILLER_0_20_271
*1055 FILLER_0_20_289
*1056 FILLER_0_20_29
*1057 FILLER_0_20_3
*1058 FILLER_0_20_301
*1059 FILLER_0_20_307
*1060 FILLER_0_20_309
*1061 FILLER_0_20_321
*1062 FILLER_0_20_333
*1063 FILLER_0_20_345
*1064 FILLER_0_20_70
*1065 FILLER_0_20_82
*1066 FILLER_0_20_85
*1067 FILLER_0_20_91
*1068 FILLER_0_21_101
*1069 FILLER_0_21_105
*1070 FILLER_0_21_134
*1071 FILLER_0_21_140
*1072 FILLER_0_21_146
*1073 FILLER_0_21_15
*1074 FILLER_0_21_152
*1075 FILLER_0_21_166
*1076 FILLER_0_21_169
*1077 FILLER_0_21_175
*1078 FILLER_0_21_195
*1079 FILLER_0_21_221
*1080 FILLER_0_21_225
*1081 FILLER_0_21_237
*1082 FILLER_0_21_241
*1083 FILLER_0_21_27
*1084 FILLER_0_21_272
*1085 FILLER_0_21_279
*1086 FILLER_0_21_281
*1087 FILLER_0_21_293
*1088 FILLER_0_21_3
*1089 FILLER_0_21_305
*1090 FILLER_0_21_317
*1091 FILLER_0_21_329
*1092 FILLER_0_21_335
*1093 FILLER_0_21_337
*1094 FILLER_0_21_349
*1095 FILLER_0_21_39
*1096 FILLER_0_21_54
*1097 FILLER_0_21_57
*1098 FILLER_0_21_74
*1099 FILLER_0_22_106
*1100 FILLER_0_22_15
*1101 FILLER_0_22_176
*1102 FILLER_0_22_187
*1103 FILLER_0_22_195
*1104 FILLER_0_22_197
*1105 FILLER_0_22_201
*1106 FILLER_0_22_205
*1107 FILLER_0_22_217
*1108 FILLER_0_22_225
*1109 FILLER_0_22_231
*1110 FILLER_0_22_263
*1111 FILLER_0_22_27
*1112 FILLER_0_22_280
*1113 FILLER_0_22_29
*1114 FILLER_0_22_291
*1115 FILLER_0_22_3
*1116 FILLER_0_22_303
*1117 FILLER_0_22_307
*1118 FILLER_0_22_312
*1119 FILLER_0_22_321
*1120 FILLER_0_22_326
*1121 FILLER_0_22_338
*1122 FILLER_0_22_350
*1123 FILLER_0_22_41
*1124 FILLER_0_22_45
*1125 FILLER_0_22_85
*1126 FILLER_0_22_93
*1127 FILLER_0_22_98
*1128 FILLER_0_23_106
*1129 FILLER_0_23_113
*1130 FILLER_0_23_130
*1131 FILLER_0_23_142
*1132 FILLER_0_23_15
*1133 FILLER_0_23_150
*1134 FILLER_0_23_154
*1135 FILLER_0_23_166
*1136 FILLER_0_23_172
*1137 FILLER_0_23_197
*1138 FILLER_0_23_217
*1139 FILLER_0_23_247
*1140 FILLER_0_23_259
*1141 FILLER_0_23_263
*1142 FILLER_0_23_27
*1143 FILLER_0_23_270
*1144 FILLER_0_23_278
*1145 FILLER_0_23_281
*1146 FILLER_0_23_299
*1147 FILLER_0_23_3
*1148 FILLER_0_23_319
*1149 FILLER_0_23_337
*1150 FILLER_0_23_349
*1151 FILLER_0_23_39
*1152 FILLER_0_23_51
*1153 FILLER_0_23_55
*1154 FILLER_0_23_57
*1155 FILLER_0_23_69
*1156 FILLER_0_23_76
*1157 FILLER_0_23_88
*1158 FILLER_0_24_106
*1159 FILLER_0_24_137
*1160 FILLER_0_24_144
*1161 FILLER_0_24_15
*1162 FILLER_0_24_175
*1163 FILLER_0_24_179
*1164 FILLER_0_24_187
*1165 FILLER_0_24_195
*1166 FILLER_0_24_197
*1167 FILLER_0_24_203
*1168 FILLER_0_24_207
*1169 FILLER_0_24_211
*1170 FILLER_0_24_217
*1171 FILLER_0_24_221
*1172 FILLER_0_24_227
*1173 FILLER_0_24_235
*1174 FILLER_0_24_253
*1175 FILLER_0_24_257
*1176 FILLER_0_24_266
*1177 FILLER_0_24_27
*1178 FILLER_0_24_278
*1179 FILLER_0_24_284
*1180 FILLER_0_24_288
*1181 FILLER_0_24_29
*1182 FILLER_0_24_3
*1183 FILLER_0_24_300
*1184 FILLER_0_24_316
*1185 FILLER_0_24_328
*1186 FILLER_0_24_346
*1187 FILLER_0_24_350
*1188 FILLER_0_24_41
*1189 FILLER_0_24_53
*1190 FILLER_0_24_65
*1191 FILLER_0_24_77
*1192 FILLER_0_25_113
*1193 FILLER_0_25_134
*1194 FILLER_0_25_15
*1195 FILLER_0_25_154
*1196 FILLER_0_25_165
*1197 FILLER_0_25_169
*1198 FILLER_0_25_177
*1199 FILLER_0_25_196
*1200 FILLER_0_25_223
*1201 FILLER_0_25_260
*1202 FILLER_0_25_27
*1203 FILLER_0_25_3
*1204 FILLER_0_25_300
*1205 FILLER_0_25_311
*1206 FILLER_0_25_316
*1207 FILLER_0_25_331
*1208 FILLER_0_25_337
*1209 FILLER_0_25_349
*1210 FILLER_0_25_39
*1211 FILLER_0_25_51
*1212 FILLER_0_25_55
*1213 FILLER_0_25_57
*1214 FILLER_0_25_69
*1215 FILLER_0_25_78
*1216 FILLER_0_25_86
*1217 FILLER_0_25_92
*1218 FILLER_0_26_101
*1219 FILLER_0_26_113
*1220 FILLER_0_26_121
*1221 FILLER_0_26_127
*1222 FILLER_0_26_133
*1223 FILLER_0_26_139
*1224 FILLER_0_26_144
*1225 FILLER_0_26_15
*1226 FILLER_0_26_152
*1227 FILLER_0_26_158
*1228 FILLER_0_26_165
*1229 FILLER_0_26_177
*1230 FILLER_0_26_189
*1231 FILLER_0_26_195
*1232 FILLER_0_26_197
*1233 FILLER_0_26_208
*1234 FILLER_0_26_220
*1235 FILLER_0_26_232
*1236 FILLER_0_26_236
*1237 FILLER_0_26_240
*1238 FILLER_0_26_253
*1239 FILLER_0_26_265
*1240 FILLER_0_26_27
*1241 FILLER_0_26_274
*1242 FILLER_0_26_282
*1243 FILLER_0_26_286
*1244 FILLER_0_26_29
*1245 FILLER_0_26_290
*1246 FILLER_0_26_3
*1247 FILLER_0_26_302
*1248 FILLER_0_26_328
*1249 FILLER_0_26_340
*1250 FILLER_0_26_348
*1251 FILLER_0_26_41
*1252 FILLER_0_26_53
*1253 FILLER_0_26_65
*1254 FILLER_0_26_85
*1255 FILLER_0_26_93
*1256 FILLER_0_27_106
*1257 FILLER_0_27_129
*1258 FILLER_0_27_15
*1259 FILLER_0_27_169
*1260 FILLER_0_27_203
*1261 FILLER_0_27_211
*1262 FILLER_0_27_217
*1263 FILLER_0_27_221
*1264 FILLER_0_27_225
*1265 FILLER_0_27_234
*1266 FILLER_0_27_259
*1267 FILLER_0_27_263
*1268 FILLER_0_27_27
*1269 FILLER_0_27_281
*1270 FILLER_0_27_286
*1271 FILLER_0_27_298
*1272 FILLER_0_27_3
*1273 FILLER_0_27_321
*1274 FILLER_0_27_333
*1275 FILLER_0_27_337
*1276 FILLER_0_27_341
*1277 FILLER_0_27_349
*1278 FILLER_0_27_39
*1279 FILLER_0_27_51
*1280 FILLER_0_27_55
*1281 FILLER_0_27_57
*1282 FILLER_0_27_69
*1283 FILLER_0_27_76
*1284 FILLER_0_27_84
*1285 FILLER_0_28_101
*1286 FILLER_0_28_113
*1287 FILLER_0_28_119
*1288 FILLER_0_28_127
*1289 FILLER_0_28_135
*1290 FILLER_0_28_139
*1291 FILLER_0_28_141
*1292 FILLER_0_28_149
*1293 FILLER_0_28_15
*1294 FILLER_0_28_161
*1295 FILLER_0_28_229
*1296 FILLER_0_28_247
*1297 FILLER_0_28_251
*1298 FILLER_0_28_253
*1299 FILLER_0_28_261
*1300 FILLER_0_28_27
*1301 FILLER_0_28_270
*1302 FILLER_0_28_276
*1303 FILLER_0_28_29
*1304 FILLER_0_28_296
*1305 FILLER_0_28_3
*1306 FILLER_0_28_307
*1307 FILLER_0_28_309
*1308 FILLER_0_28_321
*1309 FILLER_0_28_329
*1310 FILLER_0_28_41
*1311 FILLER_0_28_48
*1312 FILLER_0_28_52
*1313 FILLER_0_28_69
*1314 FILLER_0_28_73
*1315 FILLER_0_28_80
*1316 FILLER_0_28_85
*1317 FILLER_0_28_93
*1318 FILLER_0_29_105
*1319 FILLER_0_29_129
*1320 FILLER_0_29_146
*1321 FILLER_0_29_15
*1322 FILLER_0_29_169
*1323 FILLER_0_29_191
*1324 FILLER_0_29_197
*1325 FILLER_0_29_201
*1326 FILLER_0_29_207
*1327 FILLER_0_29_211
*1328 FILLER_0_29_220
*1329 FILLER_0_29_225
*1330 FILLER_0_29_231
*1331 FILLER_0_29_236
*1332 FILLER_0_29_244
*1333 FILLER_0_29_252
*1334 FILLER_0_29_27
*1335 FILLER_0_29_274
*1336 FILLER_0_29_288
*1337 FILLER_0_29_3
*1338 FILLER_0_29_335
*1339 FILLER_0_29_343
*1340 FILLER_0_29_54
*1341 FILLER_0_29_68
*1342 FILLER_0_2_109
*1343 FILLER_0_2_121
*1344 FILLER_0_2_133
*1345 FILLER_0_2_139
*1346 FILLER_0_2_141
*1347 FILLER_0_2_15
*1348 FILLER_0_2_153
*1349 FILLER_0_2_165
*1350 FILLER_0_2_177
*1351 FILLER_0_2_189
*1352 FILLER_0_2_195
*1353 FILLER_0_2_197
*1354 FILLER_0_2_209
*1355 FILLER_0_2_221
*1356 FILLER_0_2_233
*1357 FILLER_0_2_245
*1358 FILLER_0_2_251
*1359 FILLER_0_2_253
*1360 FILLER_0_2_265
*1361 FILLER_0_2_27
*1362 FILLER_0_2_277
*1363 FILLER_0_2_289
*1364 FILLER_0_2_29
*1365 FILLER_0_2_3
*1366 FILLER_0_2_301
*1367 FILLER_0_2_307
*1368 FILLER_0_2_309
*1369 FILLER_0_2_321
*1370 FILLER_0_2_333
*1371 FILLER_0_2_345
*1372 FILLER_0_2_41
*1373 FILLER_0_2_53
*1374 FILLER_0_2_65
*1375 FILLER_0_2_77
*1376 FILLER_0_2_83
*1377 FILLER_0_2_85
*1378 FILLER_0_2_97
*1379 FILLER_0_30_109
*1380 FILLER_0_30_121
*1381 FILLER_0_30_128
*1382 FILLER_0_30_132
*1383 FILLER_0_30_141
*1384 FILLER_0_30_153
*1385 FILLER_0_30_213
*1386 FILLER_0_30_230
*1387 FILLER_0_30_25
*1388 FILLER_0_30_253
*1389 FILLER_0_30_272
*1390 FILLER_0_30_280
*1391 FILLER_0_30_284
*1392 FILLER_0_30_288
*1393 FILLER_0_30_296
*1394 FILLER_0_30_300
*1395 FILLER_0_30_305
*1396 FILLER_0_30_309
*1397 FILLER_0_30_321
*1398 FILLER_0_30_326
*1399 FILLER_0_30_334
*1400 FILLER_0_30_48
*1401 FILLER_0_30_60
*1402 FILLER_0_30_72
*1403 FILLER_0_30_77
*1404 FILLER_0_30_83
*1405 FILLER_0_30_85
*1406 FILLER_0_31_107
*1407 FILLER_0_31_113
*1408 FILLER_0_31_15
*1409 FILLER_0_31_152
*1410 FILLER_0_31_161
*1411 FILLER_0_31_167
*1412 FILLER_0_31_169
*1413 FILLER_0_31_175
*1414 FILLER_0_31_179
*1415 FILLER_0_31_183
*1416 FILLER_0_31_195
*1417 FILLER_0_31_202
*1418 FILLER_0_31_214
*1419 FILLER_0_31_222
*1420 FILLER_0_31_225
*1421 FILLER_0_31_233
*1422 FILLER_0_31_238
*1423 FILLER_0_31_242
*1424 FILLER_0_31_254
*1425 FILLER_0_31_258
*1426 FILLER_0_31_265
*1427 FILLER_0_31_27
*1428 FILLER_0_31_271
*1429 FILLER_0_31_281
*1430 FILLER_0_31_298
*1431 FILLER_0_31_3
*1432 FILLER_0_31_316
*1433 FILLER_0_31_337
*1434 FILLER_0_31_341
*1435 FILLER_0_31_349
*1436 FILLER_0_31_39
*1437 FILLER_0_31_57
*1438 FILLER_0_31_84
*1439 FILLER_0_31_90
*1440 FILLER_0_31_94
*1441 FILLER_0_31_99
*1442 FILLER_0_32_101
*1443 FILLER_0_32_119
*1444 FILLER_0_32_131
*1445 FILLER_0_32_138
*1446 FILLER_0_32_141
*1447 FILLER_0_32_153
*1448 FILLER_0_32_159
*1449 FILLER_0_32_184
*1450 FILLER_0_32_189
*1451 FILLER_0_32_19
*1452 FILLER_0_32_195
*1453 FILLER_0_32_213
*1454 FILLER_0_32_249
*1455 FILLER_0_32_25
*1456 FILLER_0_32_269
*1457 FILLER_0_32_277
*1458 FILLER_0_32_281
*1459 FILLER_0_32_293
*1460 FILLER_0_32_301
*1461 FILLER_0_32_306
*1462 FILLER_0_32_312
*1463 FILLER_0_32_32
*1464 FILLER_0_32_324
*1465 FILLER_0_32_328
*1466 FILLER_0_32_334
*1467 FILLER_0_32_38
*1468 FILLER_0_32_42
*1469 FILLER_0_32_51
*1470 FILLER_0_32_63
*1471 FILLER_0_32_75
*1472 FILLER_0_32_83
*1473 FILLER_0_33_104
*1474 FILLER_0_33_109
*1475 FILLER_0_33_113
*1476 FILLER_0_33_121
*1477 FILLER_0_33_126
*1478 FILLER_0_33_147
*1479 FILLER_0_33_167
*1480 FILLER_0_33_169
*1481 FILLER_0_33_200
*1482 FILLER_0_33_212
*1483 FILLER_0_33_219
*1484 FILLER_0_33_223
*1485 FILLER_0_33_225
*1486 FILLER_0_33_233
*1487 FILLER_0_33_258
*1488 FILLER_0_33_262
*1489 FILLER_0_33_274
*1490 FILLER_0_33_297
*1491 FILLER_0_33_3
*1492 FILLER_0_33_304
*1493 FILLER_0_33_324
*1494 FILLER_0_33_335
*1495 FILLER_0_33_337
*1496 FILLER_0_33_344
*1497 FILLER_0_33_350
*1498 FILLER_0_33_49
*1499 FILLER_0_33_55
*1500 FILLER_0_33_63
*1501 FILLER_0_33_75
*1502 FILLER_0_33_83
*1503 FILLER_0_34_11
*1504 FILLER_0_34_112
*1505 FILLER_0_34_141
*1506 FILLER_0_34_16
*1507 FILLER_0_34_185
*1508 FILLER_0_34_193
*1509 FILLER_0_34_20
*1510 FILLER_0_34_227
*1511 FILLER_0_34_239
*1512 FILLER_0_34_245
*1513 FILLER_0_34_249
*1514 FILLER_0_34_256
*1515 FILLER_0_34_279
*1516 FILLER_0_34_291
*1517 FILLER_0_34_3
*1518 FILLER_0_34_309
*1519 FILLER_0_34_317
*1520 FILLER_0_34_32
*1521 FILLER_0_34_322
*1522 FILLER_0_34_329
*1523 FILLER_0_34_346
*1524 FILLER_0_34_350
*1525 FILLER_0_34_44
*1526 FILLER_0_34_73
*1527 FILLER_0_34_77
*1528 FILLER_0_35_116
*1529 FILLER_0_35_122
*1530 FILLER_0_35_148
*1531 FILLER_0_35_159
*1532 FILLER_0_35_212
*1533 FILLER_0_35_217
*1534 FILLER_0_35_223
*1535 FILLER_0_35_247
*1536 FILLER_0_35_253
*1537 FILLER_0_35_257
*1538 FILLER_0_35_269
*1539 FILLER_0_35_277
*1540 FILLER_0_35_281
*1541 FILLER_0_35_289
*1542 FILLER_0_35_310
*1543 FILLER_0_35_329
*1544 FILLER_0_35_335
*1545 FILLER_0_35_337
*1546 FILLER_0_35_349
*1547 FILLER_0_35_35
*1548 FILLER_0_35_60
*1549 FILLER_0_35_68
*1550 FILLER_0_35_90
*1551 FILLER_0_36_100
*1552 FILLER_0_36_104
*1553 FILLER_0_36_11
*1554 FILLER_0_36_115
*1555 FILLER_0_36_157
*1556 FILLER_0_36_16
*1557 FILLER_0_36_177
*1558 FILLER_0_36_189
*1559 FILLER_0_36_197
*1560 FILLER_0_36_20
*1561 FILLER_0_36_218
*1562 FILLER_0_36_230
*1563 FILLER_0_36_24
*1564 FILLER_0_36_242
*1565 FILLER_0_36_248
*1566 FILLER_0_36_269
*1567 FILLER_0_36_287
*1568 FILLER_0_36_294
*1569 FILLER_0_36_3
*1570 FILLER_0_36_306
*1571 FILLER_0_36_309
*1572 FILLER_0_36_315
*1573 FILLER_0_36_319
*1574 FILLER_0_36_32
*1575 FILLER_0_36_330
*1576 FILLER_0_36_41
*1577 FILLER_0_36_50
*1578 FILLER_0_36_55
*1579 FILLER_0_36_67
*1580 FILLER_0_36_85
*1581 FILLER_0_36_96
*1582 FILLER_0_37_111
*1583 FILLER_0_37_113
*1584 FILLER_0_37_118
*1585 FILLER_0_37_130
*1586 FILLER_0_37_151
*1587 FILLER_0_37_159
*1588 FILLER_0_37_166
*1589 FILLER_0_37_175
*1590 FILLER_0_37_203
*1591 FILLER_0_37_207
*1592 FILLER_0_37_263
*1593 FILLER_0_37_271
*1594 FILLER_0_37_297
*1595 FILLER_0_37_3
*1596 FILLER_0_37_302
*1597 FILLER_0_37_308
*1598 FILLER_0_37_331
*1599 FILLER_0_37_335
*1600 FILLER_0_37_340
*1601 FILLER_0_37_348
*1602 FILLER_0_37_47
*1603 FILLER_0_37_79
*1604 FILLER_0_38_104
*1605 FILLER_0_38_110
*1606 FILLER_0_38_113
*1607 FILLER_0_38_117
*1608 FILLER_0_38_130
*1609 FILLER_0_38_135
*1610 FILLER_0_38_139
*1611 FILLER_0_38_15
*1612 FILLER_0_38_157
*1613 FILLER_0_38_163
*1614 FILLER_0_38_169
*1615 FILLER_0_38_177
*1616 FILLER_0_38_190
*1617 FILLER_0_38_197
*1618 FILLER_0_38_206
*1619 FILLER_0_38_212
*1620 FILLER_0_38_225
*1621 FILLER_0_38_237
*1622 FILLER_0_38_253
*1623 FILLER_0_38_27
*1624 FILLER_0_38_279