*SPEF "ieee 1481-1999"
*DESIGN "tt_um_wta"
*DATE "11:11:11 Fri 11 11, 1111"
*VENDOR "OpenRCX"
*PROGRAM "Parallel Extraction"
*VERSION "1.0"
*DESIGN_FLOW "NAME_SCOPE LOCAL" "PIN_CAP NONE"
*DIVIDER /
*DELIMITER :
*BUS_DELIMITER []
*T_UNIT 1 NS
*C_UNIT 1 PF
*R_UNIT 1 OHM
*L_UNIT 1 HENRY

*NAME_MAP
*3 clk
*4 ena
*5 rst_n
*6 ui_in[0]
*7 ui_in[1]
*8 ui_in[2]
*9 ui_in[3]
*10 ui_in[4]
*11 ui_in[5]
*12 ui_in[6]
*13 ui_in[7]
*14 uio_in[0]
*15 uio_in[1]
*16 uio_in[2]
*17 uio_in[3]
*18 uio_in[4]
*19 uio_in[5]
*20 uio_in[6]
*21 uio_in[7]
*22 net18
*23 net19
*24 net20
*25 net21
*26 net22
*27 net23
*28 net24
*29 net25
*30 net10
*31 net11
*32 net12
*33 net13
*34 net14
*35 net15
*36 net16
*37 net17
*38 uo_out[0]
*39 uo_out[1]
*40 uo_out[2]
*41 uo_out[3]
*42 uo_out[4]
*43 uo_out[5]
*44 uo_out[6]
*45 uo_out[7]
*46 _000_
*47 _001_
*48 _002_
*49 _003_
*50 _004_
*51 _005_
*52 _006_
*53 _007_
*54 _008_
*55 _009_
*56 _010_
*57 _011_
*58 _012_
*59 _013_
*60 _014_
*61 _015_
*62 _016_
*63 _017_
*64 _018_
*65 _019_
*66 _020_
*67 _021_
*68 _022_
*69 _023_
*70 _024_
*71 _025_
*72 _026_
*73 _027_
*74 _028_
*75 _029_
*76 _030_
*77 _031_
*78 _032_
*79 _033_
*80 _034_
*81 _035_
*82 _036_
*83 _037_
*84 _038_
*85 _039_
*86 _040_
*87 _041_
*88 _042_
*89 clknet_0_clk
*90 clknet_1_0__leaf_clk
*91 clknet_1_1__leaf_clk
*92 net1
*93 net2
*94 net26
*95 net27
*96 net28
*97 net29
*98 net3
*99 net30
*100 net31
*101 net32
*102 net33
*103 net4
*104 net5
*105 net6
*106 net7
*107 net8
*108 net9
*109 wta1\.result\[0\]
*110 wta1\.result\[1\]
*111 wta1\.result\[2\]
*112 wta1\.result\[3\]
*113 wta1\.result\[4\]
*114 wta1\.result\[5\]
*115 wta1\.result\[6\]
*116 wta1\.result\[7\]
*117 FILLER_0_0_109
*118 FILLER_0_0_113
*119 FILLER_0_0_125
*120 FILLER_0_0_137
*121 FILLER_0_0_141
*122 FILLER_0_0_15
*123 FILLER_0_0_153
*124 FILLER_0_0_165
*125 FILLER_0_0_169
*126 FILLER_0_0_181
*127 FILLER_0_0_193
*128 FILLER_0_0_197
*129 FILLER_0_0_209
*130 FILLER_0_0_221
*131 FILLER_0_0_225
*132 FILLER_0_0_237
*133 FILLER_0_0_249
*134 FILLER_0_0_253
*135 FILLER_0_0_265
*136 FILLER_0_0_27
*137 FILLER_0_0_277
*138 FILLER_0_0_281
*139 FILLER_0_0_29
*140 FILLER_0_0_293
*141 FILLER_0_0_3
*142 FILLER_0_0_305
*143 FILLER_0_0_309
*144 FILLER_0_0_321
*145 FILLER_0_0_333
*146 FILLER_0_0_337
*147 FILLER_0_0_349
*148 FILLER_0_0_41
*149 FILLER_0_0_53
*150 FILLER_0_0_57
*151 FILLER_0_0_69
*152 FILLER_0_0_81
*153 FILLER_0_0_85
*154 FILLER_0_0_97
*155 FILLER_0_10_109
*156 FILLER_0_10_121
*157 FILLER_0_10_133
*158 FILLER_0_10_139
*159 FILLER_0_10_141
*160 FILLER_0_10_15
*161 FILLER_0_10_153
*162 FILLER_0_10_165
*163 FILLER_0_10_177
*164 FILLER_0_10_189
*165 FILLER_0_10_195
*166 FILLER_0_10_197
*167 FILLER_0_10_209
*168 FILLER_0_10_221
*169 FILLER_0_10_233
*170 FILLER_0_10_245
*171 FILLER_0_10_251
*172 FILLER_0_10_253
*173 FILLER_0_10_265
*174 FILLER_0_10_27
*175 FILLER_0_10_277
*176 FILLER_0_10_289
*177 FILLER_0_10_29
*178 FILLER_0_10_3
*179 FILLER_0_10_301
*180 FILLER_0_10_307
*181 FILLER_0_10_309
*182 FILLER_0_10_321
*183 FILLER_0_10_333
*184 FILLER_0_10_345
*185 FILLER_0_10_41
*186 FILLER_0_10_53
*187 FILLER_0_10_65
*188 FILLER_0_10_77
*189 FILLER_0_10_83
*190 FILLER_0_10_85
*191 FILLER_0_10_97
*192 FILLER_0_11_105
*193 FILLER_0_11_111
*194 FILLER_0_11_113
*195 FILLER_0_11_125
*196 FILLER_0_11_137
*197 FILLER_0_11_149
*198 FILLER_0_11_15
*199 FILLER_0_11_161
*200 FILLER_0_11_167
*201 FILLER_0_11_169
*202 FILLER_0_11_181
*203 FILLER_0_11_193
*204 FILLER_0_11_205
*205 FILLER_0_11_217
*206 FILLER_0_11_223
*207 FILLER_0_11_225
*208 FILLER_0_11_237
*209 FILLER_0_11_249
*210 FILLER_0_11_261
*211 FILLER_0_11_27
*212 FILLER_0_11_273
*213 FILLER_0_11_279
*214 FILLER_0_11_281
*215 FILLER_0_11_293
*216 FILLER_0_11_3
*217 FILLER_0_11_305
*218 FILLER_0_11_317
*219 FILLER_0_11_329
*220 FILLER_0_11_335
*221 FILLER_0_11_337
*222 FILLER_0_11_349
*223 FILLER_0_11_39
*224 FILLER_0_11_51
*225 FILLER_0_11_55
*226 FILLER_0_11_57
*227 FILLER_0_11_69
*228 FILLER_0_11_81
*229 FILLER_0_11_93
*230 FILLER_0_12_109
*231 FILLER_0_12_121
*232 FILLER_0_12_133
*233 FILLER_0_12_139
*234 FILLER_0_12_141
*235 FILLER_0_12_15
*236 FILLER_0_12_153
*237 FILLER_0_12_165
*238 FILLER_0_12_177
*239 FILLER_0_12_189
*240 FILLER_0_12_195
*241 FILLER_0_12_197
*242 FILLER_0_12_209
*243 FILLER_0_12_221
*244 FILLER_0_12_233
*245 FILLER_0_12_245
*246 FILLER_0_12_251
*247 FILLER_0_12_253
*248 FILLER_0_12_265
*249 FILLER_0_12_27
*250 FILLER_0_12_277
*251 FILLER_0_12_289
*252 FILLER_0_12_29
*253 FILLER_0_12_3
*254 FILLER_0_12_301
*255 FILLER_0_12_307
*256 FILLER_0_12_309
*257 FILLER_0_12_321
*258 FILLER_0_12_333
*259 FILLER_0_12_345
*260 FILLER_0_12_41
*261 FILLER_0_12_53
*262 FILLER_0_12_65
*263 FILLER_0_12_77
*264 FILLER_0_12_83
*265 FILLER_0_12_85
*266 FILLER_0_12_97
*267 FILLER_0_13_105
*268 FILLER_0_13_111
*269 FILLER_0_13_113
*270 FILLER_0_13_125
*271 FILLER_0_13_137
*272 FILLER_0_13_149
*273 FILLER_0_13_15
*274 FILLER_0_13_161
*275 FILLER_0_13_167
*276 FILLER_0_13_169
*277 FILLER_0_13_181
*278 FILLER_0_13_193
*279 FILLER_0_13_205
*280 FILLER_0_13_217
*281 FILLER_0_13_223
*282 FILLER_0_13_225
*283 FILLER_0_13_237
*284 FILLER_0_13_249
*285 FILLER_0_13_261
*286 FILLER_0_13_27
*287 FILLER_0_13_273
*288 FILLER_0_13_279
*289 FILLER_0_13_281
*290 FILLER_0_13_293
*291 FILLER_0_13_3
*292 FILLER_0_13_305
*293 FILLER_0_13_317
*294 FILLER_0_13_329
*295 FILLER_0_13_335
*296 FILLER_0_13_337
*297 FILLER_0_13_349
*298 FILLER_0_13_39
*299 FILLER_0_13_51
*300 FILLER_0_13_55
*301 FILLER_0_13_57
*302 FILLER_0_13_69
*303 FILLER_0_13_81
*304 FILLER_0_13_93
*305 FILLER_0_14_109
*306 FILLER_0_14_121
*307 FILLER_0_14_133
*308 FILLER_0_14_139
*309 FILLER_0_14_141
*310 FILLER_0_14_15
*311 FILLER_0_14_153
*312 FILLER_0_14_165
*313 FILLER_0_14_177
*314 FILLER_0_14_189
*315 FILLER_0_14_195
*316 FILLER_0_14_197
*317 FILLER_0_14_209
*318 FILLER_0_14_221
*319 FILLER_0_14_233
*320 FILLER_0_14_245
*321 FILLER_0_14_251
*322 FILLER_0_14_253
*323 FILLER_0_14_265
*324 FILLER_0_14_27
*325 FILLER_0_14_277
*326 FILLER_0_14_289
*327 FILLER_0_14_29
*328 FILLER_0_14_3
*329 FILLER_0_14_301
*330 FILLER_0_14_307
*331 FILLER_0_14_309
*332 FILLER_0_14_321
*333 FILLER_0_14_333
*334 FILLER_0_14_345
*335 FILLER_0_14_41
*336 FILLER_0_14_53
*337 FILLER_0_14_65
*338 FILLER_0_14_77
*339 FILLER_0_14_83
*340 FILLER_0_14_85
*341 FILLER_0_14_97
*342 FILLER_0_15_105
*343 FILLER_0_15_111
*344 FILLER_0_15_113
*345 FILLER_0_15_125
*346 FILLER_0_15_137
*347 FILLER_0_15_149
*348 FILLER_0_15_15
*349 FILLER_0_15_161
*350 FILLER_0_15_167
*351 FILLER_0_15_169
*352 FILLER_0_15_181
*353 FILLER_0_15_193
*354 FILLER_0_15_205
*355 FILLER_0_15_217
*356 FILLER_0_15_223
*357 FILLER_0_15_225
*358 FILLER_0_15_237
*359 FILLER_0_15_249
*360 FILLER_0_15_261
*361 FILLER_0_15_27
*362 FILLER_0_15_273
*363 FILLER_0_15_279
*364 FILLER_0_15_281
*365 FILLER_0_15_293
*366 FILLER_0_15_3
*367 FILLER_0_15_305
*368 FILLER_0_15_317
*369 FILLER_0_15_329
*370 FILLER_0_15_335
*371 FILLER_0_15_337
*372 FILLER_0_15_349
*373 FILLER_0_15_39
*374 FILLER_0_15_51
*375 FILLER_0_15_55
*376 FILLER_0_15_57
*377 FILLER_0_15_69
*378 FILLER_0_15_81
*379 FILLER_0_15_93
*380 FILLER_0_16_109
*381 FILLER_0_16_121
*382 FILLER_0_16_133
*383 FILLER_0_16_139
*384 FILLER_0_16_141
*385 FILLER_0_16_15
*386 FILLER_0_16_153
*387 FILLER_0_16_165
*388 FILLER_0_16_177
*389 FILLER_0_16_189
*390 FILLER_0_16_195
*391 FILLER_0_16_197
*392 FILLER_0_16_209
*393 FILLER_0_16_221
*394 FILLER_0_16_233
*395 FILLER_0_16_245
*396 FILLER_0_16_251
*397 FILLER_0_16_253
*398 FILLER_0_16_265
*399 FILLER_0_16_27
*400 FILLER_0_16_277
*401 FILLER_0_16_289
*402 FILLER_0_16_29
*403 FILLER_0_16_3
*404 FILLER_0_16_301
*405 FILLER_0_16_307
*406 FILLER_0_16_309
*407 FILLER_0_16_321
*408 FILLER_0_16_333
*409 FILLER_0_16_345
*410 FILLER_0_16_41
*411 FILLER_0_16_53
*412 FILLER_0_16_65
*413 FILLER_0_16_77
*414 FILLER_0_16_83
*415 FILLER_0_16_85
*416 FILLER_0_16_97
*417 FILLER_0_17_105
*418 FILLER_0_17_111
*419 FILLER_0_17_113
*420 FILLER_0_17_125
*421 FILLER_0_17_137
*422 FILLER_0_17_149
*423 FILLER_0_17_15
*424 FILLER_0_17_161
*425 FILLER_0_17_167
*426 FILLER_0_17_169
*427 FILLER_0_17_181
*428 FILLER_0_17_193
*429 FILLER_0_17_205
*430 FILLER_0_17_217
*431 FILLER_0_17_223
*432 FILLER_0_17_225
*433 FILLER_0_17_237
*434 FILLER_0_17_249
*435 FILLER_0_17_261
*436 FILLER_0_17_27
*437 FILLER_0_17_273
*438 FILLER_0_17_279
*439 FILLER_0_17_281
*440 FILLER_0_17_293
*441 FILLER_0_17_3
*442 FILLER_0_17_305
*443 FILLER_0_17_317
*444 FILLER_0_17_329
*445 FILLER_0_17_335
*446 FILLER_0_17_337
*447 FILLER_0_17_349
*448 FILLER_0_17_39
*449 FILLER_0_17_51
*450 FILLER_0_17_55
*451 FILLER_0_17_57
*452 FILLER_0_17_69
*453 FILLER_0_17_81
*454 FILLER_0_17_93
*455 FILLER_0_18_109
*456 FILLER_0_18_121
*457 FILLER_0_18_133
*458 FILLER_0_18_139
*459 FILLER_0_18_141
*460 FILLER_0_18_15
*461 FILLER_0_18_153
*462 FILLER_0_18_165
*463 FILLER_0_18_177
*464 FILLER_0_18_189
*465 FILLER_0_18_195
*466 FILLER_0_18_197
*467 FILLER_0_18_209
*468 FILLER_0_18_221
*469 FILLER_0_18_233
*470 FILLER_0_18_245
*471 FILLER_0_18_251
*472 FILLER_0_18_253
*473 FILLER_0_18_265
*474 FILLER_0_18_27
*475 FILLER_0_18_277
*476 FILLER_0_18_289
*477 FILLER_0_18_29
*478 FILLER_0_18_3
*479 FILLER_0_18_301
*480 FILLER_0_18_307
*481 FILLER_0_18_309
*482 FILLER_0_18_321
*483 FILLER_0_18_333
*484 FILLER_0_18_345
*485 FILLER_0_18_41
*486 FILLER_0_18_53
*487 FILLER_0_18_65
*488 FILLER_0_18_77
*489 FILLER_0_18_83
*490 FILLER_0_18_85
*491 FILLER_0_18_97
*492 FILLER_0_19_105
*493 FILLER_0_19_111
*494 FILLER_0_19_113
*495 FILLER_0_19_125
*496 FILLER_0_19_137
*497 FILLER_0_19_149
*498 FILLER_0_19_15
*499 FILLER_0_19_161
*500 FILLER_0_19_167
*501 FILLER_0_19_169
*502 FILLER_0_19_181
*503 FILLER_0_19_193
*504 FILLER_0_19_205
*505 FILLER_0_19_217
*506 FILLER_0_19_223
*507 FILLER_0_19_225
*508 FILLER_0_19_237
*509 FILLER_0_19_249
*510 FILLER_0_19_261
*511 FILLER_0_19_27
*512 FILLER_0_19_273
*513 FILLER_0_19_279
*514 FILLER_0_19_281
*515 FILLER_0_19_293
*516 FILLER_0_19_3
*517 FILLER_0_19_305
*518 FILLER_0_19_317
*519 FILLER_0_19_329
*520 FILLER_0_19_335
*521 FILLER_0_19_337
*522 FILLER_0_19_349
*523 FILLER_0_19_39
*524 FILLER_0_19_51
*525 FILLER_0_19_55
*526 FILLER_0_19_57
*527 FILLER_0_19_69
*528 FILLER_0_19_81
*529 FILLER_0_19_93
*530 FILLER_0_1_105
*531 FILLER_0_1_111
*532 FILLER_0_1_113
*533 FILLER_0_1_125
*534 FILLER_0_1_137
*535 FILLER_0_1_149
*536 FILLER_0_1_15
*537 FILLER_0_1_161
*538 FILLER_0_1_167
*539 FILLER_0_1_169
*540 FILLER_0_1_181
*541 FILLER_0_1_193
*542 FILLER_0_1_205
*543 FILLER_0_1_217
*544 FILLER_0_1_223
*545 FILLER_0_1_225
*546 FILLER_0_1_237
*547 FILLER_0_1_249
*548 FILLER_0_1_261
*549 FILLER_0_1_27
*550 FILLER_0_1_273
*551 FILLER_0_1_279
*552 FILLER_0_1_281
*553 FILLER_0_1_293
*554 FILLER_0_1_3
*555 FILLER_0_1_305
*556 FILLER_0_1_317
*557 FILLER_0_1_329
*558 FILLER_0_1_335
*559 FILLER_0_1_337
*560 FILLER_0_1_349
*561 FILLER_0_1_39
*562 FILLER_0_1_51
*563 FILLER_0_1_55
*564 FILLER_0_1_57
*565 FILLER_0_1_69
*566 FILLER_0_1_81
*567 FILLER_0_1_93
*568 FILLER_0_20_109
*569 FILLER_0_20_121
*570 FILLER_0_20_133
*571 FILLER_0_20_139
*572 FILLER_0_20_141
*573 FILLER_0_20_15
*574 FILLER_0_20_153
*575 FILLER_0_20_165
*576 FILLER_0_20_177
*577 FILLER_0_20_189
*578 FILLER_0_20_195
*579 FILLER_0_20_197
*580 FILLER_0_20_209
*581 FILLER_0_20_221
*582 FILLER_0_20_233
*583 FILLER_0_20_245
*584 FILLER_0_20_251
*585 FILLER_0_20_253
*586 FILLER_0_20_265
*587 FILLER_0_20_27
*588 FILLER_0_20_277
*589 FILLER_0_20_289
*590 FILLER_0_20_29
*591 FILLER_0_20_3
*592 FILLER_0_20_301
*593 FILLER_0_20_307
*594 FILLER_0_20_309
*595 FILLER_0_20_321
*596 FILLER_0_20_333
*597 FILLER_0_20_345
*598 FILLER_0_20_41
*599 FILLER_0_20_53
*600 FILLER_0_20_65
*601 FILLER_0_20_77
*602 FILLER_0_20_83
*603 FILLER_0_20_85
*604 FILLER_0_20_97
*605 FILLER_0_21_105
*606 FILLER_0_21_111
*607 FILLER_0_21_113
*608 FILLER_0_21_125
*609 FILLER_0_21_137
*610 FILLER_0_21_149
*611 FILLER_0_21_15
*612 FILLER_0_21_161
*613 FILLER_0_21_167
*614 FILLER_0_21_169
*615 FILLER_0_21_181
*616 FILLER_0_21_193
*617 FILLER_0_21_205
*618 FILLER_0_21_217
*619 FILLER_0_21_223
*620 FILLER_0_21_225
*621 FILLER_0_21_237
*622 FILLER_0_21_249
*623 FILLER_0_21_261
*624 FILLER_0_21_27
*625 FILLER_0_21_273
*626 FILLER_0_21_279
*627 FILLER_0_21_281
*628 FILLER_0_21_293
*629 FILLER_0_21_3
*630 FILLER_0_21_305
*631 FILLER_0_21_317
*632 FILLER_0_21_329
*633 FILLER_0_21_335
*634 FILLER_0_21_337
*635 FILLER_0_21_349
*636 FILLER_0_21_39
*637 FILLER_0_21_51
*638 FILLER_0_21_55
*639 FILLER_0_21_57
*640 FILLER_0_21_69
*641 FILLER_0_21_81
*642 FILLER_0_21_93
*643 FILLER_0_22_109
*644 FILLER_0_22_121
*645 FILLER_0_22_133
*646 FILLER_0_22_139
*647 FILLER_0_22_141
*648 FILLER_0_22_15
*649 FILLER_0_22_153
*650 FILLER_0_22_165
*651 FILLER_0_22_177
*652 FILLER_0_22_189
*653 FILLER_0_22_195
*654 FILLER_0_22_197
*655 FILLER_0_22_209
*656 FILLER_0_22_221
*657 FILLER_0_22_233
*658 FILLER_0_22_245
*659 FILLER_0_22_251
*660 FILLER_0_22_253
*661 FILLER_0_22_265
*662 FILLER_0_22_27
*663 FILLER_0_22_277
*664 FILLER_0_22_289
*665 FILLER_0_22_29
*666 FILLER_0_22_3
*667 FILLER_0_22_301
*668 FILLER_0_22_307
*669 FILLER_0_22_309
*670 FILLER_0_22_321
*671 FILLER_0_22_333
*672 FILLER_0_22_345
*673 FILLER_0_22_41
*674 FILLER_0_22_53
*675 FILLER_0_22_65
*676 FILLER_0_22_77
*677 FILLER_0_22_83
*678 FILLER_0_22_85
*679 FILLER_0_22_97
*680 FILLER_0_23_105
*681 FILLER_0_23_111
*682 FILLER_0_23_113
*683 FILLER_0_23_125
*684 FILLER_0_23_137
*685 FILLER_0_23_149
*686 FILLER_0_23_15
*687 FILLER_0_23_161
*688 FILLER_0_23_167
*689 FILLER_0_23_169
*690 FILLER_0_23_181
*691 FILLER_0_23_193
*692 FILLER_0_23_205
*693 FILLER_0_23_217
*694 FILLER_0_23_223
*695 FILLER_0_23_225
*696 FILLER_0_23_237
*697 FILLER_0_23_249
*698 FILLER_0_23_261
*699 FILLER_0_23_27
*700 FILLER_0_23_273
*701 FILLER_0_23_279
*702 FILLER_0_23_281
*703 FILLER_0_23_293
*704 FILLER_0_23_3
*705 FILLER_0_23_305
*706 FILLER_0_23_317
*707 FILLER_0_23_329
*708 FILLER_0_23_335
*709 FILLER_0_23_337
*710 FILLER_0_23_349
*711 FILLER_0_23_39
*712 FILLER_0_23_51
*713 FILLER_0_23_55
*714 FILLER_0_23_57
*715 FILLER_0_23_69
*716 FILLER_0_23_81
*717 FILLER_0_23_93
*718 FILLER_0_24_109
*719 FILLER_0_24_121
*720 FILLER_0_24_133
*721 FILLER_0_24_139
*722 FILLER_0_24_141
*723 FILLER_0_24_15
*724 FILLER_0_24_153
*725 FILLER_0_24_165
*726 FILLER_0_24_177
*727 FILLER_0_24_189
*728 FILLER_0_24_195
*729 FILLER_0_24_197
*730 FILLER_0_24_209
*731 FILLER_0_24_221
*732 FILLER_0_24_233
*733 FILLER_0_24_245
*734 FILLER_0_24_251
*735 FILLER_0_24_253
*736 FILLER_0_24_265
*737 FILLER_0_24_27
*738 FILLER_0_24_277
*739 FILLER_0_24_289
*740 FILLER_0_24_29
*741 FILLER_0_24_3
*742 FILLER_0_24_301
*743 FILLER_0_24_307
*744 FILLER_0_24_309
*745 FILLER_0_24_321
*746 FILLER_0_24_333
*747 FILLER_0_24_345
*748 FILLER_0_24_41
*749 FILLER_0_24_53
*750 FILLER_0_24_65
*751 FILLER_0_24_77
*752 FILLER_0_24_83
*753 FILLER_0_24_85
*754 FILLER_0_24_97
*755 FILLER_0_25_105
*756 FILLER_0_25_111
*757 FILLER_0_25_113
*758 FILLER_0_25_125
*759 FILLER_0_25_137
*760 FILLER_0_25_149
*761 FILLER_0_25_15
*762 FILLER_0_25_161
*763 FILLER_0_25_167
*764 FILLER_0_25_169
*765 FILLER_0_25_181
*766 FILLER_0_25_193
*767 FILLER_0_25_205
*768 FILLER_0_25_217
*769 FILLER_0_25_223
*770 FILLER_0_25_225
*771 FILLER_0_25_237
*772 FILLER_0_25_249
*773 FILLER_0_25_261
*774 FILLER_0_25_27
*775 FILLER_0_25_273
*776 FILLER_0_25_279
*777 FILLER_0_25_281
*778 FILLER_0_25_293
*779 FILLER_0_25_3
*780 FILLER_0_25_305
*781 FILLER_0_25_317
*782 FILLER_0_25_329
*783 FILLER_0_25_335
*784 FILLER_0_25_337
*785 FILLER_0_25_349
*786 FILLER_0_25_39
*787 FILLER_0_25_51
*788 FILLER_0_25_55
*789 FILLER_0_25_57
*790 FILLER_0_25_69
*791 FILLER_0_25_81
*792 FILLER_0_25_93
*793 FILLER_0_26_109
*794 FILLER_0_26_121
*795 FILLER_0_26_133
*796 FILLER_0_26_139
*797 FILLER_0_26_141
*798 FILLER_0_26_15
*799 FILLER_0_26_153
*800 FILLER_0_26_165
*801 FILLER_0_26_177
*802 FILLER_0_26_189
*803 FILLER_0_26_195
*804 FILLER_0_26_197
*805 FILLER_0_26_209
*806 FILLER_0_26_221
*807 FILLER_0_26_233
*808 FILLER_0_26_245
*809 FILLER_0_26_251
*810 FILLER_0_26_253
*811 FILLER_0_26_265
*812 FILLER_0_26_27
*813 FILLER_0_26_277
*814 FILLER_0_26_289
*815 FILLER_0_26_29
*816 FILLER_0_26_3
*817 FILLER_0_26_301
*818 FILLER_0_26_307
*819 FILLER_0_26_309
*820 FILLER_0_26_321
*821 FILLER_0_26_333
*822 FILLER_0_26_345
*823 FILLER_0_26_41
*824 FILLER_0_26_53
*825 FILLER_0_26_65
*826 FILLER_0_26_77
*827 FILLER_0_26_83
*828 FILLER_0_26_85
*829 FILLER_0_26_97
*830 FILLER_0_27_105
*831 FILLER_0_27_111
*832 FILLER_0_27_113
*833 FILLER_0_27_125
*834 FILLER_0_27_137
*835 FILLER_0_27_149
*836 FILLER_0_27_15
*837 FILLER_0_27_161
*838 FILLER_0_27_167
*839 FILLER_0_27_169
*840 FILLER_0_27_181
*841 FILLER_0_27_193
*842 FILLER_0_27_205
*843 FILLER_0_27_217
*844 FILLER_0_27_223
*845 FILLER_0_27_225
*846 FILLER_0_27_237
*847 FILLER_0_27_249
*848 FILLER_0_27_261
*849 FILLER_0_27_27
*850 FILLER_0_27_273
*851 FILLER_0_27_279
*852 FILLER_0_27_281
*853 FILLER_0_27_293
*854 FILLER_0_27_3
*855 FILLER_0_27_305
*856 FILLER_0_27_317
*857 FILLER_0_27_329
*858 FILLER_0_27_335
*859 FILLER_0_27_337
*860 FILLER_0_27_349
*861 FILLER_0_27_39
*862 FILLER_0_27_51
*863 FILLER_0_27_55
*864 FILLER_0_27_57
*865 FILLER_0_27_69
*866 FILLER_0_27_81
*867 FILLER_0_27_93
*868 FILLER_0_28_109
*869 FILLER_0_28_121
*870 FILLER_0_28_133
*871 FILLER_0_28_139
*872 FILLER_0_28_141
*873 FILLER_0_28_15
*874 FILLER_0_28_153
*875 FILLER_0_28_165
*876 FILLER_0_28_177
*877 FILLER_0_28_189
*878 FILLER_0_28_195
*879 FILLER_0_28_197
*880 FILLER_0_28_209
*881 FILLER_0_28_221
*882 FILLER_0_28_233
*883 FILLER_0_28_245
*884 FILLER_0_28_251
*885 FILLER_0_28_253
*886 FILLER_0_28_265
*887 FILLER_0_28_27
*888 FILLER_0_28_277
*889 FILLER_0_28_289
*890 FILLER_0_28_29
*891 FILLER_0_28_3
*892 FILLER_0_28_301
*893 FILLER_0_28_307
*894 FILLER_0_28_309
*895 FILLER_0_28_321
*896 FILLER_0_28_333
*897 FILLER_0_28_345
*898 FILLER_0_28_41
*899 FILLER_0_28_53
*900 FILLER_0_28_65
*901 FILLER_0_28_77
*902 FILLER_0_28_83
*903 FILLER_0_28_85
*904 FILLER_0_28_97
*905 FILLER_0_29_105
*906 FILLER_0_29_111
*907 FILLER_0_29_113
*908 FILLER_0_29_125
*909 FILLER_0_29_137
*910 FILLER_0_29_149
*911 FILLER_0_29_15
*912 FILLER_0_29_161
*913 FILLER_0_29_167
*914 FILLER_0_29_169
*915 FILLER_0_29_181
*916 FILLER_0_29_193
*917 FILLER_0_29_205
*918 FILLER_0_29_217
*919 FILLER_0_29_223
*920 FILLER_0_29_225
*921 FILLER_0_29_237
*922 FILLER_0_29_249
*923 FILLER_0_29_261
*924 FILLER_0_29_27
*925 FILLER_0_29_273
*926 FILLER_0_29_279
*927 FILLER_0_29_281
*928 FILLER_0_29_293
*929 FILLER_0_29_3
*930 FILLER_0_29_305
*931 FILLER_0_29_317
*932 FILLER_0_29_329
*933 FILLER_0_29_335
*934 FILLER_0_29_337
*935 FILLER_0_29_349
*936 FILLER_0_29_39
*937 FILLER_0_29_51
*938 FILLER_0_29_55
*939 FILLER_0_29_57
*940 FILLER_0_29_69
*941 FILLER_0_29_81
*942 FILLER_0_29_93
*943 FILLER_0_2_109
*944 FILLER_0_2_121
*945 FILLER_0_2_133
*946 FILLER_0_2_139
*947 FILLER_0_2_141
*948 FILLER_0_2_15
*949 FILLER_0_2_153
*950 FILLER_0_2_165
*951 FILLER_0_2_177
*952 FILLER_0_2_189
*953 FILLER_0_2_195
*954 FILLER_0_2_197
*955 FILLER_0_2_209
*956 FILLER_0_2_221
*957 FILLER_0_2_233
*958 FILLER_0_2_245
*959 FILLER_0_2_251
*960 FILLER_0_2_253
*961 FILLER_0_2_265
*962 FILLER_0_2_27
*963 FILLER_0_2_277
*964 FILLER_0_2_289
*965 FILLER_0_2_29
*966 FILLER_0_2_3
*967 FILLER_0_2_301
*968 FILLER_0_2_307
*969 FILLER_0_2_309
*970 FILLER_0_2_321
*971 FILLER_0_2_333
*972 FILLER_0_2_345
*973 FILLER_0_2_41
*974 FILLER_0_2_53
*975 FILLER_0_2_65
*976 FILLER_0_2_77
*977 FILLER_0_2_83
*978 FILLER_0_2_85
*979 FILLER_0_2_97
*980 FILLER_0_30_109
*981 FILLER_0_30_121
*982 FILLER_0_30_133
*983 FILLER_0_30_139
*984 FILLER_0_30_141
*985 FILLER_0_30_15
*986 FILLER_0_30_153
*987 FILLER_0_30_165
*988 FILLER_0_30_177
*989 FILLER_0_30_189
*990 FILLER_0_30_195
*991 FILLER_0_30_197
*992 FILLER_0_30_209
*993 FILLER_0_30_221
*994 FILLER_0_30_233
*995 FILLER_0_30_245
*996 FILLER_0_30_251
*997 FILLER_0_30_253
*998 FILLER_0_30_265
*999 FILLER_0_30_27
*1000 FILLER_0_30_277
*1001 FILLER_0_30_289
*1002 FILLER_0_30_29
*1003 FILLER_0_30_3
*1004 FILLER_0_30_301
*1005 FILLER_0_30_307
*1006 FILLER_0_30_309
*1007 FILLER_0_30_321
*1008 FILLER_0_30_333
*1009 FILLER_0_30_345
*1010 FILLER_0_30_41
*1011 FILLER_0_30_53
*1012 FILLER_0_30_65
*1013 FILLER_0_30_77
*1014 FILLER_0_30_83
*1015 FILLER_0_30_85
*1016 FILLER_0_30_97
*1017 FILLER_0_31_105
*1018 FILLER_0_31_111
*1019 FILLER_0_31_113
*1020 FILLER_0_31_125
*1021 FILLER_0_31_137
*1022 FILLER_0_31_149
*1023 FILLER_0_31_15
*1024 FILLER_0_31_161
*1025 FILLER_0_31_167
*1026 FILLER_0_31_169
*1027 FILLER_0_31_181
*1028 FILLER_0_31_193
*1029 FILLER_0_31_205
*1030 FILLER_0_31_217
*1031 FILLER_0_31_223
*1032 FILLER_0_31_225
*1033 FILLER_0_31_237
*1034 FILLER_0_31_249
*1035 FILLER_0_31_261
*1036 FILLER_0_31_27
*1037 FILLER_0_31_273
*1038 FILLER_0_31_279
*1039 FILLER_0_31_281
*1040 FILLER_0_31_293
*1041 FILLER_0_31_3
*1042 FILLER_0_31_305
*1043 FILLER_0_31_317
*1044 FILLER_0_31_329
*1045 FILLER_0_31_335
*1046 FILLER_0_31_337
*1047 FILLER_0_31_349
*1048 FILLER_0_31_39
*1049 FILLER_0_31_51
*1050 FILLER_0_31_55
*1051 FILLER_0_31_57
*1052 FILLER_0_31_69
*1053 FILLER_0_31_81
*1054 FILLER_0_31_93
*1055 FILLER_0_32_109
*1056 FILLER_0_32_121
*1057 FILLER_0_32_133
*1058 FILLER_0_32_139
*1059 FILLER_0_32_141
*1060 FILLER_0_32_15
*1061 FILLER_0_32_153
*1062 FILLER_0_32_165
*1063 FILLER_0_32_177
*1064 FILLER_0_32_189
*1065 FILLER_0_32_195
*1066 FILLER_0_32_197
*1067 FILLER_0_32_209
*1068 FILLER_0_32_221
*1069 FILLER_0_32_233
*1070 FILLER_0_32_245
*1071 FILLER_0_32_251
*1072 FILLER_0_32_253
*1073 FILLER_0_32_265
*1074 FILLER_0_32_27
*1075 FILLER_0_32_277
*1076 FILLER_0_32_289
*1077 FILLER_0_32_29
*1078 FILLER_0_32_3
*1079 FILLER_0_32_301
*1080 FILLER_0_32_307
*1081 FILLER_0_32_309
*1082 FILLER_0_32_321
*1083 FILLER_0_32_333
*1084 FILLER_0_32_345
*1085 FILLER_0_32_41
*1086 FILLER_0_32_53
*1087 FILLER_0_32_65
*1088 FILLER_0_32_77
*1089 FILLER_0_32_83
*1090 FILLER_0_32_85
*1091 FILLER_0_32_97
*1092 FILLER_0_33_105
*1093 FILLER_0_33_111
*1094 FILLER_0_33_113
*1095 FILLER_0_33_125
*1096 FILLER_0_33_137
*1097 FILLER_0_33_149
*1098 FILLER_0_33_15
*1099 FILLER_0_33_161
*1100 FILLER_0_33_167
*1101 FILLER_0_33_169
*1102 FILLER_0_33_188
*1103 FILLER_0_33_200
*1104 FILLER_0_33_212
*1105 FILLER_0_33_230
*1106 FILLER_0_33_236
*1107 FILLER_0_33_242
*1108 FILLER_0_33_254
*1109 FILLER_0_33_264
*1110 FILLER_0_33_27
*1111 FILLER_0_33_279
*1112 FILLER_0_33_281
*1113 FILLER_0_33_293
*1114 FILLER_0_33_3
*1115 FILLER_0_33_305
*1116 FILLER_0_33_317
*1117 FILLER_0_33_329
*1118 FILLER_0_33_335
*1119 FILLER_0_33_337
*1120 FILLER_0_33_349
*1121 FILLER_0_33_39
*1122 FILLER_0_33_51
*1123 FILLER_0_33_55
*1124 FILLER_0_33_57
*1125 FILLER_0_33_69
*1126 FILLER_0_33_81
*1127 FILLER_0_33_93
*1128 FILLER_0_34_109
*1129 FILLER_0_34_121
*1130 FILLER_0_34_133
*1131 FILLER_0_34_139
*1132 FILLER_0_34_141
*1133 FILLER_0_34_15
*1134 FILLER_0_34_153
*1135 FILLER_0_34_165
*1136 FILLER_0_34_194
*1137 FILLER_0_34_197
*1138 FILLER_0_34_221
*1139 FILLER_0_34_230
*1140 FILLER_0_34_251
*1141 FILLER_0_34_269
*1142 FILLER_0_34_27
*1143 FILLER_0_34_287
*1144 FILLER_0_34_29
*1145 FILLER_0_34_299
*1146 FILLER_0_34_3
*1147 FILLER_0_34_304
*1148 FILLER_0_34_309
*1149 FILLER_0_34_321
*1150 FILLER_0_34_333
*1151 FILLER_0_34_345
*1152 FILLER_0_34_41
*1153 FILLER_0_34_53
*1154 FILLER_0_34_65
*1155 FILLER_0_34_77
*1156 FILLER_0_34_83
*1157 FILLER_0_34_85
*1158 FILLER_0_34_97
*1159 FILLER_0_35_105
*1160 FILLER_0_35_111
*1161 FILLER_0_35_113
*1162 FILLER_0_35_125
*1163 FILLER_0_35_137
*1164 FILLER_0_35_149
*1165 FILLER_0_35_15
*1166 FILLER_0_35_157
*1167 FILLER_0_35_163
*1168 FILLER_0_35_167
*1169 FILLER_0_35_169
*1170 FILLER_0_35_175
*1171 FILLER_0_35_179
*1172 FILLER_0_35_202
*1173 FILLER_0_35_206
*1174 FILLER_0_35_212
*1175 FILLER_0_35_241
*1176 FILLER_0_35_249
*1177 FILLER_0_35_255
*1178 FILLER_0_35_262
*1179 FILLER_0_35_27
*1180 FILLER_0_35_272
*1181 FILLER_0_35_294
*1182 FILLER_0_35_3
*1183 FILLER_0_35_316
*1184 FILLER_0_35_328
*1185 FILLER_0_35_337
*1186 FILLER_0_35_349
*1187 FILLER_0_35_39
*1188 FILLER_0_35_51
*1189 FILLER_0_35_55
*1190 FILLER_0_35_57
*1191 FILLER_0_35_69
*1192 FILLER_0_35_81
*1193 FILLER_0_35_93
*1194 FILLER_0_36_109
*1195 FILLER_0_36_121
*1196 FILLER_0_36_133
*1197 FILLER_0_36_139
*1198 FILLER_0_36_141
*1199 FILLER_0_36_149
*1200 FILLER_0_36_15
*1201 FILLER_0_36_154
*1202 FILLER_0_36_172
*1203 FILLER_0_36_183
*1204 FILLER_0_36_195
*1205 FILLER_0_36_197
*1206 FILLER_0_36_215
*1207 FILLER_0_36_224
*1208 FILLER_0_36_247
*1209 FILLER_0_36_251
*1210 FILLER_0_36_263
*1211 FILLER_0_36_27
*1212 FILLER_0_36_271
*1213 FILLER_0_36_285
*1214 FILLER_0_36_29
*1215 FILLER_0_36_290
*1216 FILLER_0_36_3
*1217 FILLER_0_36_302
*1218 FILLER_0_36_307
*1219 FILLER_0_36_322
*1220 FILLER_0_36_334
*1221 FILLER_0_36_346
*1222 FILLER_0_36_350
*1223 FILLER_0_36_41
*1224 FILLER_0_36_53
*1225 FILLER_0_36_65
*1226 FILLER_0_36_77
*1227 FILLER_0_36_83
*1228 FILLER_0_36_85
*1229 FILLER_0_36_97
*1230 FILLER_0_37_105
*1231 FILLER_0_37_111
*1232 FILLER_0_37_113
*1233 FILLER_0_37_125
*1234 FILLER_0_37_137
*1235 FILLER_0_37_145
*1236 FILLER_0_37_15
*1237 FILLER_0_37_164
*1238 FILLER_0_37_172
*1239 FILLER_0_37_192
*1240 FILLER_0_37_204
*1241 FILLER_0_37_220
*1242 FILLER_0_37_244
*1243 FILLER_0_37_252
*1244 FILLER_0_37_27
*1245 FILLER_0_37_272
*1246 FILLER_0_37_278
*1247 FILLER_0_37_295
*1248 FILLER_0_37_3
*1249 FILLER_0_37_327
*1250 FILLER_0_37_335
*1251 FILLER_0_37_337
*1252 FILLER_0_37_349
*1253 FILLER_0_37_39
*1254 FILLER_0_37_51
*1255 FILLER_0_37_55
*1256 FILLER_0_37_57
*1257 FILLER_0_37_69
*1258 FILLER_0_37_81
*1259 FILLER_0_37_93
*1260 FILLER_0_38_104
*1261 FILLER_0_38_110
*1262 FILLER_0_38_116
*1263 FILLER_0_38_122
*1264 FILLER_0_38_128
*1265 FILLER_0_38_134
*1266 FILLER_0_38_141
*1267 FILLER_0_38_146
*1268 FILLER_0_38_15
*1269 FILLER_0_38_152
*1270 FILLER_0_38_158
*1271 FILLER_0_38_166
*1272 FILLER_0_38_186
*1273 FILLER_0_38_192
*1274 FILLER_0_38_214
*1275 FILLER_0_38_230
*1276 FILLER_0_38_249
*1277 FILLER_0_38_253
*1278 FILLER_0_38_260
*1279 FILLER_0_38_27
*1280 FILLER_0_38_278
*1281 FILLER_0_38_289
*1282 FILLER_0_38_29
*1283 FILLER_0_38_3
*1284 FILLER_0_38_306
*1285 FILLER_0_38_315
*1286 FILLER_0_38_331
*1287 FILLER_0_38_335
*1288 FILLER_0_38_337
*1289 FILLER_0_38_349
*1290 FILLER_0_38_41
*1291 FILLER_0_38_53
*1292 FILLER_0_38_57
*1293 FILLER_0_38_68
*1294 FILLER_0_38_74
*1295 FILLER_0_38_80
*1296 FILLER_0_38_88
*1297 FILLER_0_38_92
*1298 FILLER_0_38_98
*1299 FILLER_0_3_105
*1300 FILLER_0_3_111
*1301 FILLER_0_3_113
*1302 FILLER_0_3_125
*1303 FILLER_0_3_137
*1304 FILLER_0_3_149
*1305 FILLER_0_3_15
*1306 FILLER_0_3_161
*1307 FILLER_0_3_167
*1308 FILLER_0_3_169
*1309 FILLER_0_3_181
*1310 FILLER_0_3_193
*1311 FILLER_0_3_205
*1312 FILLER_0_3_217
*1313 FILLER_0_3_223
*1314 FILLER_0_3_225
*1315 FILLER_0_3_237
*1316 FILLER_0_3_249
*1317 FILLER_0_3_261
*1318 FILLER_0_3_27
*1319 FILLER_0_3_273
*1320 FILLER_0_3_279
*1321 FILLER_0_3_281
*1322 FILLER_0_3_293
*1323 FILLER_0_3_3
*1324 FILLER_0_3_305
*1325 FILLER_0_3_317
*1326 FILLER_0_3_329
*1327 FILLER_0_3_335
*1328 FILLER_0_3_337
*1329 FILLER_0_3_349
*1330 FILLER_0_3_39
*1331 FILLER_0_3_51
*1332 FILLER_0_3_55
*1333 FILLER_0_3_57
*1334 FILLER_0_3_69
*1335 FILLER_0_3_81
*1336 FILLER_0_3_93
*1337 FILLER_0_4_109
*1338 FILLER_0_4_121
*1339 FILLER_0_4_133
*1340 FILLER_0_4_139
*1341 FILLER_0_4_141
*1342 FILLER_0_4_15
*1343 FILLER_0_4_153
*1344 FILLER_0_4_165
*1345 FILLER_0_4_177
*1346 FILLER_0_4_189
*1347 FILLER_0_4_195
*1348 FILLER_0_4_197
*1349 FILLER_0_4_209
*1350 FILLER_0_4_221
*1351 FILLER_0_4_233
*1352 FILLER_0_4_245
*1353 FILLER_0_4_251
*1354 FILLER_0_4_253
*1355 FILLER_0_4_265
*1356 FILLER_0_4_27
*1357 FILLER_0_4_277
*1358 FILLER_0_4_289
*1359 FILLER_0_4_29
*1360 FILLER_0_4_3
*1361 FILLER_0_4_301
*1362 FILLER_0_4_307
*1363 FILLER_0_4_309
*1364 FILLER_0_4_321
*1365 FILLER_0_4_333
*1366 FILLER_0_4_345
*1367 FILLER_0_4_41
*1368 FILLER_0_4_53
*1369 FILLER_0_4_65
*1370 FILLER_0_4_77
*1371 FILLER_0_4_83
*1372 FILLER_0_4_85
*1373 FILLER_0_4_97
*1374 FILLER_0_5_105
*1375 FILLER_0_5_111
*1376 FILLER_0_5_113
*1377 FILLER_0_5_125
*1378 FILLER_0_5_137
*1379 FILLER_0_5_149
*1380 FILLER_0_5_15
*1381 FILLER_0_5_161
*1382 FILLER_0_5_167
*1383 FILLER_0_5_169
*1384 FILLER_0_5_181
*1385 FILLER_0_5_193
*1386 FILLER_0_5_205
*1387 FILLER_0_5_217
*1388 FILLER_0_5_223
*1389 FILLER_0_5_225
*1390 FILLER_0_5_237
*1391 FILLER_0_5_249
*1392 FILLER_0_5_261
*1393 FILLER_0_5_27
*1394 FILLER_0_5_273
*1395 FILLER_0_5_279
*1396 FILLER_0_5_281
*1397 FILLER_0_5_293
*1398 FILLER_0_5_3
*1399 FILLER_0_5_305
*1400 FILLER_0_5_317
*1401 FILLER_0_5_329
*1402 FILLER_0_5_335
*1403 FILLER_0_5_337
*1404 FILLER_0_5_349
*1405 FILLER_0_5_39
*1406 FILLER_0_5_51
*1407 FILLER_0_5_55
*1408 FILLER_0_5_57
*1409 FILLER_0_5_69
*1410 FILLER_0_5_81
*1411 FILLER_0_5_93
*1412 FILLER_0_6_109
*1413 FILLER_0_6_121
*1414 FILLER_0_6_133
*1415 FILLER_0_6_139
*1416 FILLER_0_6_141
*1417 FILLER_0_6_15
*1418 FILLER_0_6_153
*1419 FILLER_0_6_165
*1420 FILLER_0_6_177
*1421 FILLER_0_6_189
*1422 FILLER_0_6_195
*1423 FILLER_0_6_197
*1424 FILLER_0_6_209
*1425 FILLER_0_6_221
*1426 FILLER_0_6_233
*1427 FILLER_0_6_245
*1428 FILLER_0_6_251
*1429 FILLER_0_6_253
*1430 FILLER_0_6_265
*1431 FILLER_0_6_27
*1432 FILLER_0_6_277
*1433 FILLER_0_6_289
*1434 FILLER_0_6_29
*1435 FILLER_0_6_3
*1436 FILLER_0_6_301
*1437 FILLER_0_6_307
*1438 FILLER_0_6_309
*1439 FILLER_0_6_321
*1440 FILLER_0_6_333
*1441 FILLER_0_6_345
*1442 FILLER_0_6_41
*1443 FILLER_0_6_53
*1444 FILLER_0_6_65
*1445 FILLER_0_6_77
*1446 FILLER_0_6_83
*1447 FILLER_0_6_85
*1448 FILLER_0_6_97
*1449 FILLER_0_7_105
*1450 FILLER_0_7_111
*1451 FILLER_0_7_113
*1452 FILLER_0_7_125
*1453 FILLER_0_7_137
*1454 FILLER_0_7_149
*1455 FILLER_0_7_15
*1456 FILLER_0_7_161
*1457 FILLER_0_7_167
*1458 FILLER_0_7_169
*1459 FILLER_0_7_181
*1460 FILLER_0_7_193
*1461 FILLER_0_7_205
*1462 FILLER_0_7_217
*1463 FILLER_0_7_223
*1464 FILLER_0_7_225
*1465 FILLER_0_7_237
*1466 FILLER_0_7_249
*1467 FILLER_0_7_261
*1468 FILLER_0_7_27
*1469 FILLER_0_7_273
*1470 FILLER_0_7_279
*1471 FILLER_0_7_281
*1472 FILLER_0_7_293
*1473 FILLER_0_7_3
*1474 FILLER_0_7_305
*1475 FILLER_0_7_317
*1476 FILLER_0_7_329
*1477 FILLER_0_7_335