*SPEF "ieee 1481-1999"
*DESIGN "tt_um_nickjhay_processor"
*DATE "11:11:11 Fri 11 11, 1111"
*VENDOR "OpenRCX"
*PROGRAM "Parallel Extraction"
*VERSION "1.0"
*DESIGN_FLOW "NAME_SCOPE LOCAL" "PIN_CAP NONE"
*DIVIDER /
*DELIMITER :
*BUS_DELIMITER []
*T_UNIT 1 NS
*C_UNIT 1 PF
*R_UNIT 1 OHM
*L_UNIT 1 HENRY

*NAME_MAP
*3 clk
*4 ena
*5 rst_n
*6 ui_in[0]
*7 ui_in[1]
*8 ui_in[2]
*9 ui_in[3]
*10 ui_in[4]
*11 ui_in[5]
*12 ui_in[6]
*13 ui_in[7]
*14 uio_in[0]
*15 uio_in[1]
*16 uio_in[2]
*17 uio_in[3]
*18 uio_in[4]
*19 uio_in[5]
*20 uio_in[6]
*21 uio_in[7]
*22 net12
*23 net13
*24 net14
*25 net15
*26 net16
*27 net17
*28 net18
*29 net19
*30 net20
*31 net21
*32 net22
*33 net23
*34 net24
*35 net25
*36 net26
*37 net27
*38 uo_out[0]
*39 uo_out[1]
*40 uo_out[2]
*41 uo_out[3]
*42 uo_out[4]
*43 uo_out[5]
*44 uo_out[6]
*45 uo_out[7]
*46 _0000_
*47 _0001_
*48 _0002_
*49 _0003_
*50 _0004_
*51 _0005_
*52 _0006_
*53 _0007_
*54 _0008_
*55 _0009_
*56 _0010_
*57 _0011_
*58 _0012_
*59 _0013_
*60 _0014_
*61 _0015_
*62 _0016_
*63 _0017_
*64 _0018_
*65 _0019_
*66 _0020_
*67 _0021_
*68 _0022_
*69 _0023_
*70 _0024_
*71 _0025_
*72 _0026_
*73 _0027_
*74 _0028_
*75 _0029_
*76 _0030_
*77 _0031_
*78 _0032_
*79 _0033_
*80 _0034_
*81 _0035_
*82 _0036_
*83 _0037_
*84 _0038_
*85 _0039_
*86 _0040_
*87 _0041_
*88 _0042_
*89 _0043_
*90 _0044_
*91 _0045_
*92 _0046_
*93 _0047_
*94 _0048_
*95 _0049_
*96 _0050_
*97 _0051_
*98 _0052_
*99 _0053_
*100 _0054_
*101 _0055_
*102 _0056_
*103 _0057_
*104 _0058_
*105 _0059_
*106 _0060_
*107 _0061_
*108 _0062_
*109 _0063_
*110 _0064_
*111 _0065_
*112 _0066_
*113 _0067_
*114 _0068_
*115 _0069_
*116 _0070_
*117 _0071_
*118 _0072_
*119 _0073_
*120 _0074_
*121 _0075_
*122 _0076_
*123 _0077_
*124 _0078_
*125 _0079_
*126 _0080_
*127 _0081_
*128 _0082_
*129 _0083_
*130 _0084_
*131 _0085_
*132 _0086_
*133 _0087_
*134 _0088_
*135 _0089_
*136 _0090_
*137 _0091_
*138 _0092_
*139 _0093_
*140 _0094_
*141 _0095_
*142 _0096_
*143 _0097_
*144 _0098_
*145 _0099_
*146 _0100_
*147 _0101_
*148 _0102_
*149 _0103_
*150 _0104_
*151 _0105_
*152 _0106_
*153 _0107_
*154 _0108_
*155 _0109_
*156 _0110_
*157 _0111_
*158 _0112_
*159 _0113_
*160 _0114_
*161 _0115_
*162 _0116_
*163 _0117_
*164 _0118_
*165 _0119_
*166 _0120_
*167 _0121_
*168 _0122_
*169 _0123_
*170 _0124_
*171 _0125_
*172 _0126_
*173 _0127_
*174 _0128_
*175 _0129_
*176 _0130_
*177 _0131_
*178 _0132_
*179 _0133_
*180 _0134_
*181 _0135_
*182 _0136_
*183 _0137_
*184 _0138_
*185 _0139_
*186 _0140_
*187 _0141_
*188 _0142_
*189 _0143_
*190 _0144_
*191 _0145_
*192 _0146_
*193 _0147_
*194 _0148_
*195 _0149_
*196 _0150_
*197 _0151_
*198 _0152_
*199 _0153_
*200 _0154_
*201 _0155_
*202 _0156_
*203 _0157_
*204 _0158_
*205 _0159_
*206 _0160_
*207 _0161_
*208 _0162_
*209 _0163_
*210 _0164_
*211 _0165_
*212 _0166_
*213 _0167_
*214 _0168_
*215 _0169_
*216 _0170_
*217 _0171_
*218 _0172_
*219 _0173_
*220 _0174_
*221 _0175_
*222 _0176_
*223 _0177_
*224 _0178_
*225 _0179_
*226 _0180_
*227 _0181_
*228 _0182_
*229 _0183_
*230 _0184_
*231 _0185_
*232 _0186_
*233 _0187_
*234 _0188_
*235 _0189_
*236 _0190_
*237 _0191_
*238 _0192_
*239 _0193_
*240 _0194_
*241 _0195_
*242 _0196_
*243 _0197_
*244 _0198_
*245 _0199_
*246 _0200_
*247 _0201_
*248 _0202_
*249 _0203_
*250 _0204_
*251 _0205_
*252 _0206_
*253 _0207_
*254 _0208_
*255 _0209_
*256 _0210_
*257 _0211_
*258 _0212_
*259 _0213_
*260 _0214_
*261 _0215_
*262 _0216_
*263 _0217_
*264 _0218_
*265 _0219_
*266 _0220_
*267 _0221_
*268 _0222_
*269 _0223_
*270 _0224_
*271 _0225_
*272 _0226_
*273 _0227_
*274 _0228_
*275 _0229_
*276 _0230_
*277 _0231_
*278 _0232_
*279 _0233_
*280 _0234_
*281 _0235_
*282 _0236_
*283 _0237_
*284 _0238_
*285 _0239_
*286 _0240_
*287 _0241_
*288 _0242_
*289 _0243_
*290 _0244_
*291 _0245_
*292 _0246_
*293 _0247_
*294 _0248_
*295 _0249_
*296 _0250_
*297 _0251_
*298 _0252_
*299 _0253_
*300 _0254_
*301 _0255_
*302 _0256_
*303 _0257_
*304 _0258_
*305 _0259_
*306 _0260_
*307 _0261_
*308 _0262_
*309 _0263_
*310 _0264_
*311 _0265_
*312 _0266_
*313 _0267_
*314 _0268_
*315 _0269_
*316 _0270_
*317 _0271_
*318 _0272_
*319 _0273_
*320 _0274_
*321 _0275_
*322 _0276_
*323 _0277_
*324 _0278_
*325 _0279_
*326 _0280_
*327 _0281_
*328 _0282_
*329 _0283_
*330 _0284_
*331 _0285_
*332 _0286_
*333 _0287_
*334 _0288_
*335 _0289_
*336 _0290_
*337 _0291_
*338 _0292_
*339 _0293_
*340 _0294_
*341 _0295_
*342 _0296_
*343 _0297_
*344 _0298_
*345 _0299_
*346 _0300_
*347 _0301_
*348 _0302_
*349 _0303_
*350 _0304_
*351 _0305_
*352 _0306_
*353 _0307_
*354 _0308_
*355 _0309_
*356 _0310_
*357 _0311_
*358 _0312_
*359 _0313_
*360 _0314_
*361 _0315_
*362 _0316_
*363 _0317_
*364 _0318_
*365 _0319_
*366 _0320_
*367 _0321_
*368 _0322_
*369 _0323_
*370 _0324_
*371 _0325_
*372 _0326_
*373 _0327_
*374 _0328_
*375 _0329_
*376 _0330_
*377 _0331_
*378 _0332_
*379 _0333_
*380 _0334_
*381 _0335_
*382 _0336_
*383 _0337_
*384 _0338_
*385 _0339_
*386 _0340_
*387 _0341_
*388 _0342_
*389 _0343_
*390 _0344_
*391 _0345_
*392 _0346_
*393 _0347_
*394 _0348_
*395 _0349_
*396 _0350_
*397 _0351_
*398 _0352_
*399 _0353_
*400 _0354_
*401 _0355_
*402 _0356_
*403 _0357_
*404 _0358_
*405 _0359_
*406 _0360_
*407 _0361_
*408 _0362_
*409 _0363_
*410 _0364_
*411 _0365_
*412 _0366_
*413 _0367_
*414 _0368_
*415 _0369_
*416 _0370_
*417 _0371_
*418 _0372_
*419 _0373_
*420 _0374_
*421 _0375_
*422 _0376_
*423 _0377_
*424 _0378_
*425 _0379_
*426 _0380_
*427 _0381_
*428 _0382_
*429 _0383_
*430 _0384_
*431 _0385_
*432 _0386_
*433 _0387_
*434 _0388_
*435 _0389_
*436 _0390_
*437 _0391_
*438 _0392_
*439 _0393_
*440 _0394_
*441 _0395_
*442 _0396_
*443 _0397_
*444 _0398_
*445 _0399_
*446 _0400_
*447 _0401_
*448 _0402_
*449 _0403_
*450 _0404_
*451 _0405_
*452 _0406_
*453 _0407_
*454 _0408_
*455 _0409_
*456 _0410_
*457 _0411_
*458 _0412_
*459 _0413_
*460 _0414_
*461 _0415_
*462 _0416_
*463 _0417_
*464 _0418_
*465 _0419_
*466 _0420_
*467 _0421_
*468 _0422_
*469 _0423_
*470 _0424_
*471 _0425_
*472 _0426_
*473 _0427_
*474 _0428_
*475 _0429_
*476 _0430_
*477 _0431_
*478 _0432_
*479 _0433_
*480 _0434_
*481 _0435_
*482 _0436_
*483 _0437_
*484 _0438_
*485 _0439_
*486 _0440_
*487 _0441_
*488 _0442_
*489 _0443_
*490 _0444_
*491 _0445_
*492 _0446_
*493 _0447_
*494 _0448_
*495 _0449_
*496 _0450_
*497 _0451_
*498 _0452_
*499 _0453_
*500 _0454_
*501 _0455_
*502 _0456_
*503 _0457_
*504 _0458_
*505 _0459_
*506 _0460_
*507 _0461_
*508 _0462_
*509 _0463_
*510 _0464_
*511 _0465_
*512 _0466_
*513 _0467_
*514 _0468_
*515 _0469_
*516 _0470_
*517 _0471_
*518 _0472_
*519 _0473_
*520 _0474_
*521 _0475_
*522 _0476_
*523 _0477_
*524 _0478_
*525 _0479_
*526 _0480_
*527 _0481_
*528 _0482_
*529 _0483_
*530 _0484_
*531 _0485_
*532 _0486_
*533 _0487_
*534 _0488_
*535 _0489_
*536 _0490_
*537 _0491_
*538 _0492_
*539 _0493_
*540 _0494_
*541 _0495_
*542 _0496_
*543 _0497_
*544 _0498_
*545 _0499_
*546 _0500_
*547 _0501_
*548 _0502_
*549 _0503_
*550 _0504_
*551 _0505_
*552 _0506_
*553 _0507_
*554 _0508_
*555 _0509_
*556 _0510_
*557 _0511_
*558 _0512_
*559 _0513_
*560 _0514_
*561 _0515_
*562 _0516_
*563 _0517_
*564 _0518_
*565 _0519_
*566 _0520_
*567 _0521_
*568 _0522_
*569 _0523_
*570 _0524_
*571 _0525_
*572 _0526_
*573 _0527_
*574 _0528_
*575 _0529_
*576 _0530_
*577 _0531_
*578 _0532_
*579 _0533_
*580 _0534_
*581 _0535_
*582 _0536_
*583 _0537_
*584 _0538_
*585 _0539_
*586 _0540_
*587 _0541_
*588 _0542_
*589 _0543_
*590 _0544_
*591 _0545_
*592 _0546_
*593 _0547_
*594 _0548_
*595 _0549_
*596 clknet_0_clk
*597 clknet_1_0__leaf_clk
*598 clknet_1_1__leaf_clk
*599 clknet_leaf_0_clk
*600 clknet_leaf_10_clk
*601 clknet_leaf_11_clk
*602 clknet_leaf_1_clk
*603 clknet_leaf_2_clk
*604 clknet_leaf_3_clk
*605 clknet_leaf_4_clk
*606 clknet_leaf_5_clk
*607 clknet_leaf_6_clk
*608 clknet_leaf_7_clk
*609 clknet_leaf_8_clk
*610 clknet_leaf_9_clk
*611 net1
*612 net10
*613 net100
*614 net101
*615 net102
*616 net103
*617 net104
*618 net105
*619 net106
*620 net107
*621 net108
*622 net109
*623 net11
*624 net110
*625 net111
*626 net112
*627 net113
*628 net114
*629 net115
*630 net116
*631 net117
*632 net118
*633 net119
*634 net120
*635 net121
*636 net122
*637 net123
*638 net124
*639 net125
*640 net126
*641 net127
*642 net128
*643 net129
*644 net130
*645 net131
*646 net132
*647 net133
*648 net134
*649 net135
*650 net136
*651 net137
*652 net138
*653 net139
*654 net140
*655 net141
*656 net142
*657 net143
*658 net144
*659 net145
*660 net146
*661 net147
*662 net148
*663 net149
*664 net150
*665 net151
*666 net152
*667 net153
*668 net154
*669 net155
*670 net156
*671 net157
*672 net158
*673 net159
*674 net160
*675 net161
*676 net162
*677 net163
*678 net164
*679 net165
*680 net166
*681 net167
*682 net168
*683 net169
*684 net170
*685 net171
*686 net172
*687 net173
*688 net174
*689 net175
*690 net176
*691 net177
*692 net178
*693 net179
*694 net180
*695 net181
*696 net182
*697 net183
*698 net184
*699 net185
*700 net186
*701 net187
*702 net188
*703 net189
*704 net190
*705 net191
*706 net192
*707 net193
*708 net194
*709 net195
*710 net196
*711 net197
*712 net198
*713 net199
*714 net2
*715 net200
*716 net201
*717 net202
*718 net203
*719 net204
*720 net205
*721 net206
*722 net207
*723 net208
*724 net209
*725 net210
*726 net211
*727 net212
*728 net213
*729 net214
*730 net215
*731 net216
*732 net217
*733 net218
*734 net219
*735 net220
*736 net221
*737 net222
*738 net223
*739 net224
*740 net225
*741 net226
*742 net227
*743 net228
*744 net229
*745 net230
*746 net231
*747 net232
*748 net233
*749 net234
*750 net235
*751 net236
*752 net237
*753 net238
*754 net239
*755 net240
*756 net241
*757 net242
*758 net243
*759 net244
*760 net245
*761 net246
*762 net247
*763 net248
*764 net249
*765 net250
*766 net251
*767 net252
*768 net253
*769 net254
*770 net255
*771 net256
*772 net257
*773 net258
*774 net259
*775 net260
*776 net261
*777 net262
*778 net263
*779 net264
*780 net265
*781 net266
*782 net267
*783 net268
*784 net269
*785 net270
*786 net271
*787 net272
*788 net273
*789 net274
*790 net275
*791 net276
*792 net277
*793 net278
*794 net279
*795 net28
*796 net280
*797 net281
*798 net282
*799 net283
*800 net284
*801 net285
*802 net286
*803 net287
*804 net288
*805 net289
*806 net29
*807 net290
*808 net291
*809 net292
*810 net3
*811 net30
*812 net31
*813 net32
*814 net33
*815 net34
*816 net35
*817 net36
*818 net37
*819 net38
*820 net39
*821 net4
*822 net40
*823 net41
*824 net42
*825 net43
*826 net44
*827 net45
*828 net46
*829 net47
*830 net48
*831 net49
*832 net5
*833 net50
*834 net51
*835 net52
*836 net53
*837 net54
*838 net55
*839 net56
*840 net57
*841 net58
*842 net59
*843 net6
*844 net60
*845 net61
*846 net62
*847 net63
*848 net64
*849 net65
*850 net66
*851 net67
*852 net68
*853 net69
*854 net7
*855 net70
*856 net71
*857 net72
*858 net73
*859 net74
*860 net75
*861 net76
*862 net77
*863 net78
*864 net79
*865 net8
*866 net80
*867 net81
*868 net82
*869 net83
*870 net84
*871 net85
*872 net86
*873 net87
*874 net88
*875 net89
*876 net9
*877 net90
*878 net91
*879 net92
*880 net93
*881 net94
*882 net95
*883 net96
*884 net97
*885 net98
*886 net99
*887 sa\.iloop\[0\]\.jloop\[0\]\.sxy\.acc
*888 sa\.iloop\[0\]\.jloop\[0\]\.sxy\.in1
*889 sa\.iloop\[0\]\.jloop\[0\]\.sxy\.in2
*890 sa\.iloop\[0\]\.jloop\[0\]\.sxy\.out1
*891 sa\.iloop\[0\]\.jloop\[0\]\.sxy\.out2
*892 sa\.iloop\[0\]\.jloop\[1\]\.sxy\.acc
*893 sa\.iloop\[0\]\.jloop\[1\]\.sxy\.in1
*894 sa\.iloop\[0\]\.jloop\[1\]\.sxy\.out1
*895 sa\.iloop\[0\]\.jloop\[1\]\.sxy\.out2
*896 sa\.iloop\[0\]\.jloop\[2\]\.sxy\.acc
*897 sa\.iloop\[0\]\.jloop\[2\]\.sxy\.in1
*898 sa\.iloop\[0\]\.jloop\[2\]\.sxy\.out1
*899 sa\.iloop\[0\]\.jloop\[2\]\.sxy\.out2
*900 sa\.iloop\[0\]\.jloop\[3\]\.sxy\.acc
*901 sa\.iloop\[0\]\.jloop\[3\]\.sxy\.in1
*902 sa\.iloop\[0\]\.jloop\[3\]\.sxy\.out1
*903 sa\.iloop\[0\]\.jloop\[3\]\.sxy\.out2
*904 sa\.iloop\[0\]\.jloop\[4\]\.sxy\.acc
*905 sa\.iloop\[0\]\.jloop\[4\]\.sxy\.in1
*906 sa\.iloop\[0\]\.jloop\[4\]\.sxy\.out1
*907 sa\.iloop\[0\]\.jloop\[4\]\.sxy\.out2
*908 sa\.iloop\[0\]\.jloop\[5\]\.sxy\.acc
*909 sa\.iloop\[0\]\.jloop\[5\]\.sxy\.in1
*910 sa\.iloop\[0\]\.jloop\[5\]\.sxy\.out1
*911 sa\.iloop\[0\]\.jloop\[5\]\.sxy\.out2
*912 sa\.iloop\[0\]\.jloop\[6\]\.sxy\.acc
*913 sa\.iloop\[0\]\.jloop\[6\]\.sxy\.in1
*914 sa\.iloop\[0\]\.jloop\[6\]\.sxy\.out1
*915 sa\.iloop\[0\]\.jloop\[6\]\.sxy\.out2
*916 sa\.iloop\[0\]\.jloop\[7\]\.sxy\.acc
*917 sa\.iloop\[0\]\.jloop\[7\]\.sxy\.in1
*918 sa\.iloop\[0\]\.jloop\[7\]\.sxy\.out1
*919 sa\.iloop\[1\]\.jloop\[0\]\.sxy\.acc
*920 sa\.iloop\[1\]\.jloop\[0\]\.sxy\.in2
*921 sa\.iloop\[1\]\.jloop\[0\]\.sxy\.out1
*922 sa\.iloop\[1\]\.jloop\[0\]\.sxy\.out2
*923 sa\.iloop\[1\]\.jloop\[1\]\.sxy\.acc
*924 sa\.iloop\[1\]\.jloop\[1\]\.sxy\.out1
*925 sa\.iloop\[1\]\.jloop\[1\]\.sxy\.out2
*926 sa\.iloop\[1\]\.jloop\[2\]\.sxy\.acc
*927 sa\.iloop\[1\]\.jloop\[2\]\.sxy\.out1
*928 sa\.iloop\[1\]\.jloop\[2\]\.sxy\.out2
*929 sa\.iloop\[1\]\.jloop\[3\]\.sxy\.acc
*930 sa\.iloop\[1\]\.jloop\[3\]\.sxy\.out1
*931 sa\.iloop\[1\]\.jloop\[3\]\.sxy\.out2
*932 sa\.iloop\[1\]\.jloop\[4\]\.sxy\.acc
*933 sa\.iloop\[1\]\.jloop\[4\]\.sxy\.out1
*934 sa\.iloop\[1\]\.jloop\[4\]\.sxy\.out2
*935 sa\.iloop\[1\]\.jloop\[5\]\.sxy\.acc
*936 sa\.iloop\[1\]\.jloop\[5\]\.sxy\.out1
*937 sa\.iloop\[1\]\.jloop\[5\]\.sxy\.out2
*938 sa\.iloop\[1\]\.jloop\[6\]\.sxy\.acc
*939 sa\.iloop\[1\]\.jloop\[6\]\.sxy\.out1
*940 sa\.iloop\[1\]\.jloop\[6\]\.sxy\.out2
*941 sa\.iloop\[1\]\.jloop\[7\]\.sxy\.acc
*942 sa\.iloop\[1\]\.jloop\[7\]\.sxy\.out1
*943 sa\.iloop\[2\]\.jloop\[0\]\.sxy\.acc
*944 sa\.iloop\[2\]\.jloop\[0\]\.sxy\.in2
*945 sa\.iloop\[2\]\.jloop\[0\]\.sxy\.out1
*946 sa\.iloop\[2\]\.jloop\[0\]\.sxy\.out2
*947 sa\.iloop\[2\]\.jloop\[1\]\.sxy\.acc
*948 sa\.iloop\[2\]\.jloop\[1\]\.sxy\.out1
*949 sa\.iloop\[2\]\.jloop\[1\]\.sxy\.out2
*950 sa\.iloop\[2\]\.jloop\[2\]\.sxy\.acc
*951 sa\.iloop\[2\]\.jloop\[2\]\.sxy\.out1
*952 sa\.iloop\[2\]\.jloop\[2\]\.sxy\.out2
*953 sa\.iloop\[2\]\.jloop\[3\]\.sxy\.acc
*954 sa\.iloop\[2\]\.jloop\[3\]\.sxy\.out1
*955 sa\.iloop\[2\]\.jloop\[3\]\.sxy\.out2
*956 sa\.iloop\[2\]\.jloop\[4\]\.sxy\.acc
*957 sa\.iloop\[2\]\.jloop\[4\]\.sxy\.out1
*958 sa\.iloop\[2\]\.jloop\[4\]\.sxy\.out2
*959 sa\.iloop\[2\]\.jloop\[5\]\.sxy\.acc
*960 sa\.iloop\[2\]\.jloop\[5\]\.sxy\.out1
*961 sa\.iloop\[2\]\.jloop\[5\]\.sxy\.out2
*962 sa\.iloop\[2\]\.jloop\[6\]\.sxy\.acc
*963 sa\.iloop\[2\]\.jloop\[6\]\.sxy\.out1
*964 sa\.iloop\[2\]\.jloop\[6\]\.sxy\.out2
*965 sa\.iloop\[2\]\.jloop\[7\]\.sxy\.acc
*966 sa\.iloop\[2\]\.jloop\[7\]\.sxy\.out1
*967 sa\.iloop\[3\]\.jloop\[0\]\.sxy\.acc
*968 sa\.iloop\[3\]\.jloop\[0\]\.sxy\.in2
*969 sa\.iloop\[3\]\.jloop\[0\]\.sxy\.out1
*970 sa\.iloop\[3\]\.jloop\[0\]\.sxy\.out2
*971 sa\.iloop\[3\]\.jloop\[1\]\.sxy\.acc
*972 sa\.iloop\[3\]\.jloop\[1\]\.sxy\.out1
*973 sa\.iloop\[3\]\.jloop\[1\]\.sxy\.out2
*974 sa\.iloop\[3\]\.jloop\[2\]\.sxy\.acc
*975 sa\.iloop\[3\]\.jloop\[2\]\.sxy\.out1
*976 sa\.iloop\[3\]\.jloop\[2\]\.sxy\.out2
*977 sa\.iloop\[3\]\.jloop\[3\]\.sxy\.acc
*978 sa\.iloop\[3\]\.jloop\[3\]\.sxy\.out1
*979 sa\.iloop\[3\]\.jloop\[3\]\.sxy\.out2
*980 sa\.iloop\[3\]\.jloop\[4\]\.sxy\.acc
*981 sa\.iloop\[3\]\.jloop\[4\]\.sxy\.out1
*982 sa\.iloop\[3\]\.jloop\[4\]\.sxy\.out2
*983 sa\.iloop\[3\]\.jloop\[5\]\.sxy\.acc
*984 sa\.iloop\[3\]\.jloop\[5\]\.sxy\.out1
*985 sa\.iloop\[3\]\.jloop\[5\]\.sxy\.out2
*986 sa\.iloop\[3\]\.jloop\[6\]\.sxy\.acc
*987 sa\.iloop\[3\]\.jloop\[6\]\.sxy\.out1
*988 sa\.iloop\[3\]\.jloop\[6\]\.sxy\.out2
*989 sa\.iloop\[3\]\.jloop\[7\]\.sxy\.acc
*990 sa\.iloop\[3\]\.jloop\[7\]\.sxy\.out1
*991 sa\.iloop\[4\]\.jloop\[0\]\.sxy\.acc
*992 sa\.iloop\[4\]\.jloop\[0\]\.sxy\.in2
*993 sa\.iloop\[4\]\.jloop\[0\]\.sxy\.out1
*994 sa\.iloop\[4\]\.jloop\[0\]\.sxy\.out2
*995 sa\.iloop\[4\]\.jloop\[1\]\.sxy\.acc
*996 sa\.iloop\[4\]\.jloop\[1\]\.sxy\.out1
*997 sa\.iloop\[4\]\.jloop\[1\]\.sxy\.out2
*998 sa\.iloop\[4\]\.jloop\[2\]\.sxy\.acc
*999 sa\.iloop\[4\]\.jloop\[2\]\.sxy\.out1
*1000 sa\.iloop\[4\]\.jloop\[2\]\.sxy\.out2
*1001 sa\.iloop\[4\]\.jloop\[3\]\.sxy\.acc
*1002 sa\.iloop\[4\]\.jloop\[3\]\.sxy\.out1
*1003 sa\.iloop\[4\]\.jloop\[3\]\.sxy\.out2
*1004 sa\.iloop\[4\]\.jloop\[4\]\.sxy\.acc
*1005 sa\.iloop\[4\]\.jloop\[4\]\.sxy\.out1
*1006 sa\.iloop\[4\]\.jloop\[4\]\.sxy\.out2
*1007 sa\.iloop\[4\]\.jloop\[5\]\.sxy\.acc
*1008 sa\.iloop\[4\]\.jloop\[5\]\.sxy\.out1
*1009 sa\.iloop\[4\]\.jloop\[5\]\.sxy\.out2
*1010 sa\.iloop\[4\]\.jloop\[6\]\.sxy\.acc
*1011 sa\.iloop\[4\]\.jloop\[6\]\.sxy\.out1
*1012 sa\.iloop\[4\]\.jloop\[6\]\.sxy\.out2
*1013 sa\.iloop\[4\]\.jloop\[7\]\.sxy\.acc
*1014 sa\.iloop\[4\]\.jloop\[7\]\.sxy\.out1
*1015 sa\.iloop\[5\]\.jloop\[0\]\.sxy\.acc
*1016 sa\.iloop\[5\]\.jloop\[0\]\.sxy\.in2
*1017 sa\.iloop\[5\]\.jloop\[0\]\.sxy\.out1
*1018 sa\.iloop\[5\]\.jloop\[0\]\.sxy\.out2
*1019 sa\.iloop\[5\]\.jloop\[1\]\.sxy\.acc
*1020 sa\.iloop\[5\]\.jloop\[1\]\.sxy\.out1
*1021 sa\.iloop\[5\]\.jloop\[1\]\.sxy\.out2
*1022 sa\.iloop\[5\]\.jloop\[2\]\.sxy\.acc
*1023 sa\.iloop\[5\]\.jloop\[2\]\.sxy\.out1
*1024 sa\.iloop\[5\]\.jloop\[2\]\.sxy\.out2
*1025 sa\.iloop\[5\]\.jloop\[3\]\.sxy\.acc
*1026 sa\.iloop\[5\]\.jloop\[3\]\.sxy\.out1
*1027 sa\.iloop\[5\]\.jloop\[3\]\.sxy\.out2
*1028 sa\.iloop\[5\]\.jloop\[4\]\.sxy\.acc
*1029 sa\.iloop\[5\]\.jloop\[4\]\.sxy\.out1
*1030 sa\.iloop\[5\]\.jloop\[4\]\.sxy\.out2
*1031 sa\.iloop\[5\]\.jloop\[5\]\.sxy\.acc
*1032 sa\.iloop\[5\]\.jloop\[5\]\.sxy\.out1
*1033 sa\.iloop\[5\]\.jloop\[5\]\.sxy\.out2
*1034 sa\.iloop\[5\]\.jloop\[6\]\.sxy\.acc
*1035 sa\.iloop\[5\]\.jloop\[6\]\.sxy\.out1
*1036 sa\.iloop\[5\]\.jloop\[6\]\.sxy\.out2
*1037 sa\.iloop\[5\]\.jloop\[7\]\.sxy\.acc
*1038 sa\.iloop\[5\]\.jloop\[7\]\.sxy\.out1
*1039 sa\.iloop\[6\]\.jloop\[0\]\.sxy\.acc
*1040 sa\.iloop\[6\]\.jloop\[0\]\.sxy\.in2
*1041 sa\.iloop\[6\]\.jloop\[0\]\.sxy\.out1
*1042 sa\.iloop\[6\]\.jloop\[0\]\.sxy\.out2
*1043 sa\.iloop\[6\]\.jloop\[1\]\.sxy\.acc
*1044 sa\.iloop\[6\]\.jloop\[1\]\.sxy\.out1
*1045 sa\.iloop\[6\]\.jloop\[1\]\.sxy\.out2
*1046 sa\.iloop\[6\]\.jloop\[2\]\.sxy\.acc
*1047 sa\.iloop\[6\]\.jloop\[2\]\.sxy\.out1
*1048 sa\.iloop\[6\]\.jloop\[2\]\.sxy\.out2
*1049 sa\.iloop\[6\]\.jloop\[3\]\.sxy\.acc
*1050 sa\.iloop\[6\]\.jloop\[3\]\.sxy\.out1
*1051 sa\.iloop\[6\]\.jloop\[3\]\.sxy\.out2
*1052 sa\.iloop\[6\]\.jloop\[4\]\.sxy\.acc
*1053 sa\.iloop\[6\]\.jloop\[4\]\.sxy\.out1
*1054 sa\.iloop\[6\]\.jloop\[4\]\.sxy\.out2
*1055 sa\.iloop\[6\]\.jloop\[5\]\.sxy\.acc
*1056 sa\.iloop\[6\]\.jloop\[5\]\.sxy\.out1
*1057 sa\.iloop\[6\]\.jloop\[5\]\.sxy\.out2
*1058 sa\.iloop\[6\]\.jloop\[6\]\.sxy\.acc
*1059 sa\.iloop\[6\]\.jloop\[6\]\.sxy\.out1
*1060 sa\.iloop\[6\]\.jloop\[6\]\.sxy\.out2
*1061 sa\.iloop\[6\]\.jloop\[7\]\.sxy\.acc
*1062 sa\.iloop\[6\]\.jloop\[7\]\.sxy\.out1
*1063 sa\.iloop\[7\]\.jloop\[0\]\.sxy\.acc
*1064 sa\.iloop\[7\]\.jloop\[0\]\.sxy\.in2
*1065 sa\.iloop\[7\]\.jloop\[0\]\.sxy\.out1
*1066 sa\.iloop\[7\]\.jloop\[0\]\.sxy\.out2
*1067 sa\.iloop\[7\]\.jloop\[1\]\.sxy\.acc
*1068 sa\.iloop\[7\]\.jloop\[1\]\.sxy\.out1
*1069 sa\.iloop\[7\]\.jloop\[1\]\.sxy\.out2
*1070 sa\.iloop\[7\]\.jloop\[2\]\.sxy\.acc
*1071 sa\.iloop\[7\]\.jloop\[2\]\.sxy\.out1
*1072 sa\.iloop\[7\]\.jloop\[2\]\.sxy\.out2
*1073 sa\.iloop\[7\]\.jloop\[3\]\.sxy\.acc
*1074 sa\.iloop\[7\]\.jloop\[3\]\.sxy\.out1
*1075 sa\.iloop\[7\]\.jloop\[3\]\.sxy\.out2
*1076 sa\.iloop\[7\]\.jloop\[4\]\.sxy\.acc
*1077 sa\.iloop\[7\]\.jloop\[4\]\.sxy\.out1
*1078 sa\.iloop\[7\]\.jloop\[4\]\.sxy\.out2
*1079 sa\.iloop\[7\]\.jloop\[5\]\.sxy\.acc
*1080 sa\.iloop\[7\]\.jloop\[5\]\.sxy\.out1
*1081 sa\.iloop\[7\]\.jloop\[5\]\.sxy\.out2
*1082 sa\.iloop\[7\]\.jloop\[6\]\.sxy\.acc
*1083 sa\.iloop\[7\]\.jloop\[6\]\.sxy\.out1
*1084 sa\.iloop\[7\]\.jloop\[6\]\.sxy\.out2
*1085 sa\.iloop\[7\]\.jloop\[7\]\.sxy\.acc
*1086 sa\.iloop\[7\]\.jloop\[7\]\.sxy\.out1
*1087 sys_in1_buffer\[0\]
*1088 sys_in1_buffer\[1\]
*1089 sys_in1_buffer\[2\]
*1090 sys_in1_buffer\[3\]
*1091 sys_in1_buffer\[4\]
*1092 sys_in1_buffer\[5\]
*1093 sys_in1_buffer\[6\]
*1094 sys_in1_buffer\[7\]
*1095 sys_in1_next
*1096 ANTENNA_1
*1097 ANTENNA_2
*1098 FILLER_0_0_109
*1099 FILLER_0_0_113
*1100 FILLER_0_0_125
*1101 FILLER_0_0_137
*1102 FILLER_0_0_141
*1103 FILLER_0_0_15
*1104 FILLER_0_0_153
*1105 FILLER_0_0_165
*1106 FILLER_0_0_169
*1107 FILLER_0_0_181
*1108 FILLER_0_0_193
*1109 FILLER_0_0_197
*1110 FILLER_0_0_209
*1111 FILLER_0_0_221
*1112 FILLER_0_0_225
*1113 FILLER_0_0_237
*1114 FILLER_0_0_249
*1115 FILLER_0_0_253
*1116 FILLER_0_0_265
*1117 FILLER_0_0_27
*1118 FILLER_0_0_277
*1119 FILLER_0_0_281
*1120 FILLER_0_0_29
*1121 FILLER_0_0_293
*1122 FILLER_0_0_3
*1123 FILLER_0_0_305
*1124 FILLER_0_0_309
*1125 FILLER_0_0_321
*1126 FILLER_0_0_333
*1127 FILLER_0_0_337
*1128 FILLER_0_0_349
*1129 FILLER_0_0_41
*1130 FILLER_0_0_53
*1131 FILLER_0_0_57
*1132 FILLER_0_0_69
*1133 FILLER_0_0_81
*1134 FILLER_0_0_85
*1135 FILLER_0_0_97
*1136 FILLER_0_10_11
*1137 FILLER_0_10_138
*1138 FILLER_0_10_141
*1139 FILLER_0_10_170
*1140 FILLER_0_10_178
*1141 FILLER_0_10_213
*1142 FILLER_0_10_243
*1143 FILLER_0_10_291
*1144 FILLER_0_10_295
*1145 FILLER_0_10_299
*1146 FILLER_0_10_3
*1147 FILLER_0_10_309
*1148 FILLER_0_10_343
*1149 FILLER_0_10_50
*1150 FILLER_0_10_56
*1151 FILLER_0_10_73
*1152 FILLER_0_10_81
*1153 FILLER_0_10_85
*1154 FILLER_0_10_89
*1155 FILLER_0_11_100
*1156 FILLER_0_11_11
*1157 FILLER_0_11_111
*1158 FILLER_0_11_113
*1159 FILLER_0_11_129
*1160 FILLER_0_11_166
*1161 FILLER_0_11_177
*1162 FILLER_0_11_194
*1163 FILLER_0_11_204
*1164 FILLER_0_11_215
*1165 FILLER_0_11_249
*1166 FILLER_0_11_265
*1167 FILLER_0_11_279
*1168 FILLER_0_11_281
*1169 FILLER_0_11_296
*1170 FILLER_0_11_3
*1171 FILLER_0_11_341
*1172 FILLER_0_11_349
*1173 FILLER_0_11_53
*1174 FILLER_0_11_57
*1175 FILLER_0_11_68
*1176 FILLER_0_12_101
*1177 FILLER_0_12_108
*1178 FILLER_0_12_112
*1179 FILLER_0_12_134
*1180 FILLER_0_12_141
*1181 FILLER_0_12_15
*1182 FILLER_0_12_167
*1183 FILLER_0_12_179
*1184 FILLER_0_12_19
*1185 FILLER_0_12_191
*1186 FILLER_0_12_195
*1187 FILLER_0_12_197
*1188 FILLER_0_12_209
*1189 FILLER_0_12_234
*1190 FILLER_0_12_253
*1191 FILLER_0_12_265
*1192 FILLER_0_12_291
*1193 FILLER_0_12_3
*1194 FILLER_0_12_349
*1195 FILLER_0_12_37
*1196 FILLER_0_12_62
*1197 FILLER_0_13_129
*1198 FILLER_0_13_163
*1199 FILLER_0_13_167
*1200 FILLER_0_13_169
*1201 FILLER_0_13_181
*1202 FILLER_0_13_216
*1203 FILLER_0_13_231
*1204 FILLER_0_13_241
*1205 FILLER_0_13_248
*1206 FILLER_0_13_255
*1207 FILLER_0_13_26
*1208 FILLER_0_13_264
*1209 FILLER_0_13_278
*1210 FILLER_0_13_289
*1211 FILLER_0_13_3
*1212 FILLER_0_13_308
*1213 FILLER_0_13_318
*1214 FILLER_0_13_334
*1215 FILLER_0_13_349
*1216 FILLER_0_13_37
*1217 FILLER_0_13_9
*1218 FILLER_0_14_102
*1219 FILLER_0_14_11
*1220 FILLER_0_14_133
*1221 FILLER_0_14_141
*1222 FILLER_0_14_180
*1223 FILLER_0_14_184
*1224 FILLER_0_14_251
*1225 FILLER_0_14_285
*1226 FILLER_0_14_3
*1227 FILLER_0_14_349
*1228 FILLER_0_14_73
*1229 FILLER_0_15_11
*1230 FILLER_0_15_111
*1231 FILLER_0_15_113
*1232 FILLER_0_15_117
*1233 FILLER_0_15_133
*1234 FILLER_0_15_148
*1235 FILLER_0_15_166
*1236 FILLER_0_15_223
*1237 FILLER_0_15_253
*1238 FILLER_0_15_284
*1239 FILLER_0_15_296
*1240 FILLER_0_15_3
*1241 FILLER_0_15_319
*1242 FILLER_0_15_345
*1243 FILLER_0_15_47
*1244 FILLER_0_15_93
*1245 FILLER_0_16_11
*1246 FILLER_0_16_115
*1247 FILLER_0_16_133
*1248 FILLER_0_16_173
*1249 FILLER_0_16_181
*1250 FILLER_0_16_195
*1251 FILLER_0_16_197
*1252 FILLER_0_16_210
*1253 FILLER_0_16_248
*1254 FILLER_0_16_263
*1255 FILLER_0_16_275
*1256 FILLER_0_16_283
*1257 FILLER_0_16_3
*1258 FILLER_0_16_302
*1259 FILLER_0_16_309
*1260 FILLER_0_16_345
*1261 FILLER_0_16_42
*1262 FILLER_0_16_66
*1263 FILLER_0_16_93
*1264 FILLER_0_17_103
*1265 FILLER_0_17_133
*1266 FILLER_0_17_172
*1267 FILLER_0_17_184
*1268 FILLER_0_17_196
*1269 FILLER_0_17_200
*1270 FILLER_0_17_209
*1271 FILLER_0_17_221
*1272 FILLER_0_17_238
*1273 FILLER_0_17_249
*1274 FILLER_0_17_261
*1275 FILLER_0_17_271
*1276 FILLER_0_17_3
*1277 FILLER_0_17_335
*1278 FILLER_0_17_340
*1279 FILLER_0_17_348
*1280 FILLER_0_17_40
*1281 FILLER_0_17_52
*1282 FILLER_0_17_57
*1283 FILLER_0_17_63
*1284 FILLER_0_17_76
*1285 FILLER_0_17_91
*1286 FILLER_0_18_101
*1287 FILLER_0_18_11
*1288 FILLER_0_18_133
*1289 FILLER_0_18_141
*1290 FILLER_0_18_178
*1291 FILLER_0_18_190
*1292 FILLER_0_18_197
*1293 FILLER_0_18_209
*1294 FILLER_0_18_251
*1295 FILLER_0_18_259
*1296 FILLER_0_18_263
*1297 FILLER_0_18_280
*1298 FILLER_0_18_29
*1299 FILLER_0_18_3
*1300 FILLER_0_18_306
*1301 FILLER_0_18_317
*1302 FILLER_0_18_34
*1303 FILLER_0_18_350
*1304 FILLER_0_18_42
*1305 FILLER_0_18_82
*1306 FILLER_0_18_93
*1307 FILLER_0_19_103
*1308 FILLER_0_19_126
*1309 FILLER_0_19_15
*1310 FILLER_0_19_167
*1311 FILLER_0_19_183
*1312 FILLER_0_19_19
*1313 FILLER_0_19_200
*1314 FILLER_0_19_221
*1315 FILLER_0_19_234
*1316 FILLER_0_19_272
*1317 FILLER_0_19_281
*1318 FILLER_0_19_289
*1319 FILLER_0_19_294
*1320 FILLER_0_19_3
*1321 FILLER_0_19_306
*1322 FILLER_0_19_318
*1323 FILLER_0_19_333
*1324 FILLER_0_19_341
*1325 FILLER_0_19_349
*1326 FILLER_0_19_52
*1327 FILLER_0_19_57
*1328 FILLER_0_19_66
*1329 FILLER_0_19_74
*1330 FILLER_0_19_78
*1331 FILLER_0_19_82
*1332 FILLER_0_1_105
*1333 FILLER_0_1_111
*1334 FILLER_0_1_113
*1335 FILLER_0_1_125
*1336 FILLER_0_1_137
*1337 FILLER_0_1_149
*1338 FILLER_0_1_15
*1339 FILLER_0_1_161
*1340 FILLER_0_1_167
*1341 FILLER_0_1_169
*1342 FILLER_0_1_181
*1343 FILLER_0_1_193
*1344 FILLER_0_1_205
*1345 FILLER_0_1_217
*1346 FILLER_0_1_223
*1347 FILLER_0_1_225
*1348 FILLER_0_1_237
*1349 FILLER_0_1_249
*1350 FILLER_0_1_261
*1351 FILLER_0_1_27
*1352 FILLER_0_1_273
*1353 FILLER_0_1_279
*1354 FILLER_0_1_281
*1355 FILLER_0_1_293
*1356 FILLER_0_1_3
*1357 FILLER_0_1_305
*1358 FILLER_0_1_317
*1359 FILLER_0_1_329
*1360 FILLER_0_1_335
*1361 FILLER_0_1_337
*1362 FILLER_0_1_349
*1363 FILLER_0_1_39
*1364 FILLER_0_1_51
*1365 FILLER_0_1_55
*1366 FILLER_0_1_57
*1367 FILLER_0_1_69
*1368 FILLER_0_1_81
*1369 FILLER_0_1_93
*1370 FILLER_0_20_106
*1371 FILLER_0_20_135
*1372 FILLER_0_20_139
*1373 FILLER_0_20_141
*1374 FILLER_0_20_15
*1375 FILLER_0_20_187
*1376 FILLER_0_20_19
*1377 FILLER_0_20_229
*1378 FILLER_0_20_23
*1379 FILLER_0_20_244
*1380 FILLER_0_20_27
*1381 FILLER_0_20_273
*1382 FILLER_0_20_290
*1383 FILLER_0_20_298
*1384 FILLER_0_20_3
*1385 FILLER_0_20_307
*1386 FILLER_0_20_309
*1387 FILLER_0_20_317
*1388 FILLER_0_20_50
*1389 FILLER_0_20_67
*1390 FILLER_0_20_85
*1391 FILLER_0_20_94
*1392 FILLER_0_21_11
*1393 FILLER_0_21_111
*1394 FILLER_0_21_119
*1395 FILLER_0_21_131
*1396 FILLER_0_21_167
*1397 FILLER_0_21_169
*1398 FILLER_0_21_181
*1399 FILLER_0_21_206
*1400 FILLER_0_21_218
*1401 FILLER_0_21_225
*1402 FILLER_0_21_249
*1403 FILLER_0_21_3
*1404 FILLER_0_21_305
*1405 FILLER_0_21_333
*1406 FILLER_0_21_349
*1407 FILLER_0_21_41
*1408 FILLER_0_21_51
*1409 FILLER_0_21_72
*1410 FILLER_0_22_11
*1411 FILLER_0_22_111
*1412 FILLER_0_22_127
*1413 FILLER_0_22_139
*1414 FILLER_0_22_141
*1415 FILLER_0_22_152
*1416 FILLER_0_22_167
*1417 FILLER_0_22_179
*1418 FILLER_0_22_191
*1419 FILLER_0_22_195
*1420 FILLER_0_22_197
*1421 FILLER_0_22_209
*1422 FILLER_0_22_251
*1423 FILLER_0_22_269
*1424 FILLER_0_22_3
*1425 FILLER_0_22_305
*1426 FILLER_0_22_309
*1427 FILLER_0_22_347
*1428 FILLER_0_22_38
*1429 FILLER_0_22_45
*1430 FILLER_0_22_54
*1431 FILLER_0_22_58
*1432 FILLER_0_22_62
*1433 FILLER_0_22_85
*1434 FILLER_0_23_113
*1435 FILLER_0_23_130
*1436 FILLER_0_23_145
*1437 FILLER_0_23_15
*1438 FILLER_0_23_157
*1439 FILLER_0_23_165
*1440 FILLER_0_23_190
*1441 FILLER_0_23_202
*1442 FILLER_0_23_225
*1443 FILLER_0_23_267
*1444 FILLER_0_23_279
*1445 FILLER_0_23_295
*1446 FILLER_0_23_3
*1447 FILLER_0_23_307
*1448 FILLER_0_23_311
*1449 FILLER_0_23_345
*1450 FILLER_0_23_44
*1451 FILLER_0_23_48
*1452 FILLER_0_23_81
*1453 FILLER_0_24_111
*1454 FILLER_0_24_124
*1455 FILLER_0_24_136
*1456 FILLER_0_24_15
*1457 FILLER_0_24_19
*1458 FILLER_0_24_193
*1459 FILLER_0_24_205
*1460 FILLER_0_24_217
*1461 FILLER_0_24_224
*1462 FILLER_0_24_250
*1463 FILLER_0_24_264
*1464 FILLER_0_24_27
*1465 FILLER_0_24_276
*1466 FILLER_0_24_284
*1467 FILLER_0_24_29
*1468 FILLER_0_24_3
*1469 FILLER_0_24_306
*1470 FILLER_0_24_309
*1471 FILLER_0_24_320
*1472 FILLER_0_24_337
*1473 FILLER_0_24_348
*1474 FILLER_0_24_79
*1475 FILLER_0_24_83
*1476 FILLER_0_24_85
*1477 FILLER_0_25_102
*1478 FILLER_0_25_129
*1479 FILLER_0_25_141
*1480 FILLER_0_25_145
*1481 FILLER_0_25_162
*1482 FILLER_0_25_169
*1483 FILLER_0_25_211
*1484 FILLER_0_25_219
*1485 FILLER_0_25_223
*1486 FILLER_0_25_249
*1487 FILLER_0_25_263
*1488 FILLER_0_25_278
*1489 FILLER_0_25_294
*1490 FILLER_0_25_3
*1491 FILLER_0_25_311
*1492 FILLER_0_25_334
*1493 FILLER_0_25_337
*1494 FILLER_0_25_346
*1495 FILLER_0_25_350
*1496 FILLER_0_25_54
*1497 FILLER_0_25_7
*1498 FILLER_0_25_77
*1499 FILLER_0_25_98
*1500 FILLER_0_26_102
*1501 FILLER_0_26_109
*1502 FILLER_0_26_11
*1503 FILLER_0_26_135
*1504 FILLER_0_26_139
*1505 FILLER_0_26_157
*1506 FILLER_0_26_177
*1507 FILLER_0_26_195
*1508 FILLER_0_26_205
*1509 FILLER_0_26_222
*1510 FILLER_0_26_226
*1511 FILLER_0_26_247
*1512 FILLER_0_26_251
*1513 FILLER_0_26_285
*1514 FILLER_0_26_3
*1515 FILLER_0_26_309
*1516 FILLER_0_26_350
*1517 FILLER_0_26_42
*1518 FILLER_0_26_50
*1519 FILLER_0_26_54
*1520 FILLER_0_26_70
*1521 FILLER_0_26_79
*1522 FILLER_0_26_83
*1523 FILLER_0_26_85
*1524 FILLER_0_26_90
*1525 FILLER_0_27_11
*1526 FILLER_0_27_121
*1527 FILLER_0_27_130
*1528 FILLER_0_27_142
*1529 FILLER_0_27_146
*1530 FILLER_0_27_154
*1531 FILLER_0_27_177
*1532 FILLER_0_27_182
*1533 FILLER_0_27_193
*1534 FILLER_0_27_204
*1535 FILLER_0_27_248
*1536 FILLER_0_27_279
*1537 FILLER_0_27_28
*1538 FILLER_0_27_285
*1539 FILLER_0_27_3
*1540 FILLER_0_27_311
*1541 FILLER_0_27_349
*1542 FILLER_0_27_47
*1543 FILLER_0_27_51
*1544 FILLER_0_27_73
*1545 FILLER_0_27_81
*1546 FILLER_0_28_11
*1547 FILLER_0_28_120
*1548 FILLER_0_28_132
*1549 FILLER_0_28_157
*1550 FILLER_0_28_172
*1551 FILLER_0_28_181
*1552 FILLER_0_28_197
*1553 FILLER_0_28_205
*1554 FILLER_0_28_220
*1555 FILLER_0_28_242
*1556 FILLER_0_28_251
*1557 FILLER_0_28_253
*1558 FILLER_0_28_271
*1559 FILLER_0_28_275
*1560 FILLER_0_28_299
*1561 FILLER_0_28_3
*1562 FILLER_0_28_349
*1563 FILLER_0_28_51
*1564 FILLER_0_28_72
*1565 FILLER_0_28_85
*1566 FILLER_0_29_11
*1567 FILLER_0_29_119
*1568 FILLER_0_29_131
*1569 FILLER_0_29_197
*1570 FILLER_0_29_220
*1571 FILLER_0_29_241