*SPEF "ieee 1481-1999"
*DESIGN "tt_um_nickjhay_processor"
*DATE "11:11:11 Fri 11 11, 1111"
*VENDOR "OpenRCX"
*PROGRAM "Parallel Extraction"
*VERSION "1.0"
*DESIGN_FLOW "NAME_SCOPE LOCAL" "PIN_CAP NONE"
*DIVIDER /
*DELIMITER :
*BUS_DELIMITER []
*T_UNIT 1 NS
*C_UNIT 1 PF
*R_UNIT 1 OHM
*L_UNIT 1 HENRY

*NAME_MAP
*3 clk
*4 ena
*5 rst_n
*6 ui_in[0]
*7 ui_in[1]
*8 ui_in[2]
*9 ui_in[3]
*10 ui_in[4]
*11 ui_in[5]
*12 ui_in[6]
*13 ui_in[7]
*14 uio_in[0]
*15 uio_in[1]
*16 uio_in[2]
*17 uio_in[3]
*18 uio_in[4]
*19 uio_in[5]
*20 uio_in[6]
*21 uio_in[7]
*22 net17
*23 net18
*24 net19
*25 net20
*26 net21
*27 net22
*28 net23
*29 net24
*30 net25
*31 net26
*32 net27
*33 net28
*34 net29
*35 net30
*36 net31
*37 net32
*38 uo_out[0]
*39 uo_out[1]
*40 uo_out[2]
*41 uo_out[3]
*42 uo_out[4]
*43 uo_out[5]
*44 uo_out[6]
*45 uo_out[7]
*46 _0000_
*47 _0001_
*48 _0002_
*49 _0003_
*50 _0004_
*51 _0005_
*52 _0006_
*53 _0007_
*54 _0008_
*55 _0009_
*56 _0010_
*57 _0011_
*58 _0012_
*59 _0013_
*60 _0014_
*61 _0015_
*62 _0016_
*63 _0017_
*64 _0018_
*65 _0019_
*66 _0020_
*67 _0021_
*68 _0022_
*69 _0023_
*70 _0024_
*71 _0025_
*72 _0026_
*73 _0027_
*74 _0028_
*75 _0029_
*76 _0030_
*77 _0031_
*78 _0032_
*79 _0033_
*80 _0034_
*81 _0035_
*82 _0036_
*83 _0037_
*84 _0038_
*85 _0039_
*86 _0040_
*87 _0041_
*88 _0042_
*89 _0043_
*90 _0044_
*91 _0045_
*92 _0046_
*93 _0047_
*94 _0048_
*95 _0049_
*96 _0050_
*97 _0051_
*98 _0052_
*99 _0053_
*100 _0054_
*101 _0055_
*102 _0056_
*103 _0057_
*104 _0058_
*105 _0059_
*106 _0060_
*107 _0061_
*108 _0062_
*109 _0063_
*110 _0064_
*111 _0065_
*112 _0066_
*113 _0067_
*114 _0068_
*115 _0069_
*116 _0070_
*117 _0071_
*118 _0072_
*119 _0073_
*120 _0074_
*121 _0075_
*122 _0076_
*123 _0077_
*124 _0078_
*125 _0079_
*126 _0080_
*127 _0081_
*128 _0082_
*129 _0083_
*130 _0084_
*131 _0085_
*132 _0086_
*133 _0087_
*134 _0088_
*135 _0089_
*136 _0090_
*137 _0091_
*138 _0092_
*139 _0093_
*140 _0094_
*141 _0095_
*142 _0096_
*143 _0097_
*144 _0098_
*145 _0099_
*146 _0100_
*147 _0101_
*148 _0102_
*149 _0103_
*150 _0104_
*151 _0105_
*152 _0106_
*153 _0107_
*154 _0108_
*155 _0109_
*156 _0110_
*157 _0111_
*158 _0112_
*159 _0113_
*160 _0114_
*161 _0115_
*162 _0116_
*163 _0117_
*164 _0118_
*165 _0119_
*166 _0120_
*167 _0121_
*168 _0122_
*169 _0123_
*170 _0124_
*171 _0125_
*172 _0126_
*173 _0127_
*174 _0128_
*175 _0129_
*176 _0130_
*177 _0131_
*178 _0132_
*179 _0133_
*180 _0134_
*181 _0135_
*182 _0136_
*183 _0137_
*184 _0138_
*185 _0139_
*186 _0140_
*187 _0141_
*188 _0142_
*189 _0143_
*190 _0144_
*191 _0145_
*192 _0146_
*193 _0147_
*194 _0148_
*195 _0149_
*196 _0150_
*197 _0151_
*198 _0152_
*199 _0153_
*200 _0154_
*201 _0155_
*202 _0156_
*203 _0157_
*204 _0158_
*205 _0159_
*206 _0160_
*207 _0161_
*208 _0162_
*209 _0163_
*210 _0164_
*211 _0165_
*212 _0166_
*213 _0167_
*214 _0168_
*215 _0169_
*216 _0170_
*217 _0171_
*218 _0172_
*219 _0173_
*220 _0174_
*221 _0175_
*222 _0176_
*223 _0177_
*224 _0178_
*225 _0179_
*226 _0180_
*227 _0181_
*228 _0182_
*229 _0183_
*230 _0184_
*231 _0185_
*232 _0186_
*233 _0187_
*234 _0188_
*235 _0189_
*236 _0190_
*237 _0191_
*238 _0192_
*239 _0193_
*240 _0194_
*241 _0195_
*242 _0196_
*243 _0197_
*244 _0198_
*245 _0199_
*246 _0200_
*247 _0201_
*248 _0202_
*249 _0203_
*250 _0204_
*251 _0205_
*252 _0206_
*253 _0207_
*254 _0208_
*255 _0209_
*256 _0210_
*257 _0211_
*258 _0212_
*259 _0213_
*260 _0214_
*261 _0215_
*262 _0216_
*263 _0217_
*264 _0218_
*265 _0219_
*266 _0220_
*267 _0221_
*268 _0222_
*269 _0223_
*270 _0224_
*271 _0225_
*272 _0226_
*273 _0227_
*274 _0228_
*275 _0229_
*276 _0230_
*277 _0231_
*278 _0232_
*279 _0233_
*280 _0234_
*281 _0235_
*282 _0236_
*283 _0237_
*284 _0238_
*285 _0239_
*286 _0240_
*287 _0241_
*288 _0242_
*289 _0243_
*290 _0244_
*291 _0245_
*292 _0246_
*293 _0247_
*294 _0248_
*295 _0249_
*296 _0250_
*297 _0251_
*298 _0252_
*299 _0253_
*300 _0254_
*301 _0255_
*302 _0256_
*303 _0257_
*304 _0258_
*305 _0259_
*306 _0260_
*307 _0261_
*308 _0262_
*309 _0263_
*310 _0264_
*311 _0265_
*312 _0266_
*313 _0267_
*314 _0268_
*315 _0269_
*316 _0270_
*317 _0271_
*318 _0272_
*319 _0273_
*320 _0274_
*321 _0275_
*322 _0276_
*323 _0277_
*324 _0278_
*325 _0279_
*326 _0280_
*327 _0281_
*328 _0282_
*329 _0283_
*330 _0284_
*331 _0285_
*332 _0286_
*333 _0287_
*334 _0288_
*335 _0289_
*336 _0290_
*337 _0291_
*338 _0292_
*339 _0293_
*340 _0294_
*341 _0295_
*342 _0296_
*343 _0297_
*344 _0298_
*345 _0299_
*346 _0300_
*347 _0301_
*348 _0302_
*349 _0303_
*350 _0304_
*351 _0305_
*352 _0306_
*353 _0307_
*354 _0308_
*355 _0309_
*356 _0310_
*357 _0311_
*358 _0312_
*359 _0313_
*360 _0314_
*361 _0315_
*362 _0316_
*363 _0317_
*364 _0318_
*365 _0319_
*366 _0320_
*367 _0321_
*368 _0322_
*369 _0323_
*370 _0324_
*371 _0325_
*372 _0326_
*373 _0327_
*374 _0328_
*375 _0329_
*376 _0330_
*377 _0331_
*378 _0332_
*379 _0333_
*380 _0334_
*381 _0335_
*382 _0336_
*383 _0337_
*384 _0338_
*385 _0339_
*386 _0340_
*387 _0341_
*388 _0342_
*389 _0343_
*390 _0344_
*391 _0345_
*392 _0346_
*393 _0347_
*394 _0348_
*395 _0349_
*396 _0350_
*397 _0351_
*398 _0352_
*399 _0353_
*400 _0354_
*401 _0355_
*402 _0356_
*403 _0357_
*404 _0358_
*405 _0359_
*406 _0360_
*407 _0361_
*408 _0362_
*409 _0363_
*410 _0364_
*411 _0365_
*412 _0366_
*413 _0367_
*414 _0368_
*415 _0369_
*416 _0370_
*417 _0371_
*418 _0372_
*419 _0373_
*420 _0374_
*421 _0375_
*422 _0376_
*423 _0377_
*424 _0378_
*425 _0379_
*426 _0380_
*427 _0381_
*428 _0382_
*429 _0383_
*430 _0384_
*431 _0385_
*432 _0386_
*433 _0387_
*434 _0388_
*435 _0389_
*436 _0390_
*437 _0391_
*438 _0392_
*439 _0393_
*440 _0394_
*441 _0395_
*442 _0396_
*443 _0397_
*444 _0398_
*445 _0399_
*446 _0400_
*447 _0401_
*448 _0402_
*449 _0403_
*450 _0404_
*451 _0405_
*452 _0406_
*453 _0407_
*454 _0408_
*455 _0409_
*456 _0410_
*457 _0411_
*458 _0412_
*459 _0413_
*460 _0414_
*461 _0415_
*462 _0416_
*463 _0417_
*464 _0418_
*465 _0419_
*466 _0420_
*467 _0421_
*468 _0422_
*469 _0423_
*470 _0424_
*471 _0425_
*472 _0426_
*473 _0427_
*474 _0428_
*475 _0429_
*476 _0430_
*477 _0431_
*478 _0432_
*479 _0433_
*480 _0434_
*481 _0435_
*482 _0436_
*483 _0437_
*484 _0438_
*485 _0439_
*486 _0440_
*487 _0441_
*488 _0442_
*489 _0443_
*490 _0444_
*491 _0445_
*492 _0446_
*493 _0447_
*494 _0448_
*495 _0449_
*496 _0450_
*497 _0451_
*498 _0452_
*499 _0453_
*500 _0454_
*501 _0455_
*502 _0456_
*503 _0457_
*504 _0458_
*505 _0459_
*506 _0460_
*507 _0461_
*508 _0462_
*509 _0463_
*510 _0464_
*511 _0465_
*512 _0466_
*513 _0467_
*514 _0468_
*515 _0469_
*516 _0470_
*517 _0471_
*518 _0472_
*519 _0473_
*520 _0474_
*521 _0475_
*522 _0476_
*523 _0477_
*524 _0478_
*525 _0479_
*526 _0480_
*527 _0481_
*528 _0482_
*529 _0483_
*530 _0484_
*531 _0485_
*532 _0486_
*533 _0487_
*534 _0488_
*535 _0489_
*536 _0490_
*537 _0491_
*538 _0492_
*539 _0493_
*540 _0494_
*541 _0495_
*542 _0496_
*543 _0497_
*544 _0498_
*545 _0499_
*546 _0500_
*547 _0501_
*548 _0502_
*549 _0503_
*550 _0504_
*551 _0505_
*552 _0506_
*553 _0507_
*554 _0508_
*555 _0509_
*556 _0510_
*557 _0511_
*558 _0512_
*559 _0513_
*560 _0514_
*561 _0515_
*562 _0516_
*563 _0517_
*564 _0518_
*565 _0519_
*566 _0520_
*567 _0521_
*568 _0522_
*569 _0523_
*570 _0524_
*571 _0525_
*572 _0526_
*573 _0527_
*574 _0528_
*575 _0529_
*576 _0530_
*577 _0531_
*578 _0532_
*579 _0533_
*580 _0534_
*581 _0535_
*582 _0536_
*583 _0537_
*584 _0538_
*585 _0539_
*586 _0540_
*587 _0541_
*588 _0542_
*589 _0543_
*590 _0544_
*591 _0545_
*592 _0546_
*593 _0547_
*594 _0548_
*595 _0549_
*596 _0550_
*597 _0551_
*598 _0552_
*599 _0553_
*600 _0554_
*601 _0555_
*602 _0556_
*603 _0557_
*604 _0558_
*605 _0559_
*606 _0560_
*607 _0561_
*608 _0562_
*609 _0563_
*610 _0564_
*611 _0565_
*612 _0566_
*613 _0567_
*614 _0568_
*615 _0569_
*616 _0570_
*617 _0571_
*618 _0572_
*619 _0573_
*620 _0574_
*621 _0575_
*622 _0576_
*623 _0577_
*624 _0578_
*625 _0579_
*626 _0580_
*627 _0581_
*628 _0582_
*629 _0583_
*630 _0584_
*631 _0585_
*632 _0586_
*633 _0587_
*634 _0588_
*635 _0589_
*636 _0590_
*637 _0591_
*638 _0592_
*639 _0593_
*640 _0594_
*641 _0595_
*642 _0596_
*643 _0597_
*644 _0598_
*645 _0599_
*646 _0600_
*647 _0601_
*648 _0602_
*649 _0603_
*650 _0604_
*651 _0605_
*652 _0606_
*653 _0607_
*654 _0608_
*655 _0609_
*656 _0610_
*657 _0611_
*658 _0612_
*659 _0613_
*660 _0614_
*661 _0615_
*662 _0616_
*663 _0617_
*664 _0618_
*665 _0619_
*666 _0620_
*667 _0621_
*668 _0622_
*669 _0623_
*670 _0624_
*671 _0625_
*672 _0626_
*673 _0627_
*674 _0628_
*675 _0629_
*676 _0630_
*677 _0631_
*678 _0632_
*679 _0633_
*680 _0634_
*681 _0635_
*682 _0636_
*683 _0637_
*684 _0638_
*685 _0639_
*686 _0640_
*687 _0641_
*688 _0642_
*689 _0643_
*690 _0644_
*691 _0645_
*692 _0646_
*693 _0647_
*694 _0648_
*695 _0649_
*696 _0650_
*697 _0651_
*698 _0652_
*699 _0653_
*700 _0654_
*701 _0655_
*702 _0656_
*703 _0657_
*704 _0658_
*705 _0659_
*706 _0660_
*707 _0661_
*708 _0662_
*709 _0663_
*710 _0664_
*711 _0665_
*712 _0666_
*713 _0667_
*714 _0668_
*715 _0669_
*716 _0670_
*717 _0671_
*718 _0672_
*719 _0673_
*720 _0674_
*721 _0675_
*722 _0676_
*723 _0677_
*724 _0678_
*725 _0679_
*726 _0680_
*727 _0681_
*728 _0682_
*729 _0683_
*730 _0684_
*731 _0685_
*732 _0686_
*733 _0687_
*734 _0688_
*735 _0689_
*736 _0690_
*737 _0691_
*738 _0692_
*739 _0693_
*740 _0694_
*741 _0695_
*742 _0696_
*743 _0697_
*744 _0698_
*745 _0699_
*746 _0700_
*747 _0701_
*748 _0702_
*749 _0703_
*750 _0704_
*751 _0705_
*752 _0706_
*753 _0707_
*754 _0708_
*755 _0709_
*756 _0710_
*757 _0711_
*758 _0712_
*759 _0713_
*760 _0714_
*761 _0715_
*762 _0716_
*763 _0717_
*764 _0718_
*765 _0719_
*766 _0720_
*767 _0721_
*768 _0722_
*769 _0723_
*770 _0724_
*771 _0725_
*772 _0726_
*773 _0727_
*774 _0728_
*775 _0729_
*776 _0730_
*777 _0731_
*778 _0732_
*779 _0733_
*780 _0734_
*781 _0735_
*782 _0736_
*783 _0737_
*784 _0738_
*785 _0739_
*786 _0740_
*787 _0741_
*788 _0742_
*789 _0743_
*790 _0744_
*791 _0745_
*792 _0746_
*793 _0747_
*794 _0748_
*795 _0749_
*796 _0750_
*797 _0751_
*798 _0752_
*799 _0753_
*800 _0754_
*801 _0755_
*802 _0756_
*803 _0757_
*804 _0758_
*805 _0759_
*806 _0760_
*807 _0761_
*808 _0762_
*809 _0763_
*810 _0764_
*811 _0765_
*812 _0766_
*813 _0767_
*814 _0768_
*815 _0769_
*816 _0770_
*817 _0771_
*818 _0772_
*819 _0773_
*820 _0774_
*821 _0775_
*822 _0776_
*823 _0777_
*824 _0778_
*825 _0779_
*826 _0780_
*827 _0781_
*828 _0782_
*829 _0783_
*830 _0784_
*831 _0785_
*832 _0786_
*833 _0787_
*834 _0788_
*835 _0789_
*836 _0790_
*837 _0791_
*838 _0792_
*839 _0793_
*840 _0794_
*841 _0795_
*842 _0796_
*843 _0797_
*844 _0798_
*845 _0799_
*846 _0800_
*847 _0801_
*848 _0802_
*849 _0803_
*850 _0804_
*851 _0805_
*852 _0806_
*853 _0807_
*854 _0808_
*855 _0809_
*856 _0810_
*857 _0811_
*858 _0812_
*859 _0813_
*860 _0814_
*861 _0815_
*862 _0816_
*863 _0817_
*864 _0818_
*865 _0819_
*866 _0820_
*867 _0821_
*868 _0822_
*869 _0823_
*870 _0824_
*871 _0825_
*872 _0826_
*873 _0827_
*874 _0828_
*875 _0829_
*876 _0830_
*877 _0831_
*878 _0832_
*879 _0833_
*880 _0834_
*881 _0835_
*882 _0836_
*883 _0837_
*884 _0838_
*885 _0839_
*886 _0840_
*887 _0841_
*888 _0842_
*889 _0843_
*890 _0844_
*891 _0845_
*892 adventure_running
*893 clknet_0_clk
*894 clknet_1_0__leaf_clk
*895 clknet_1_1__leaf_clk
*896 clknet_leaf_0_clk
*897 clknet_leaf_10_clk
*898 clknet_leaf_1_clk
*899 clknet_leaf_2_clk
*900 clknet_leaf_3_clk
*901 clknet_leaf_4_clk
*902 clknet_leaf_5_clk
*903 clknet_leaf_6_clk
*904 clknet_leaf_7_clk
*905 clknet_leaf_8_clk
*906 clknet_leaf_9_clk
*907 net1
*908 net10
*909 net100
*910 net101
*911 net102
*912 net103
*913 net104
*914 net105
*915 net106
*916 net107
*917 net108
*918 net109
*919 net11
*920 net110
*921 net111
*922 net112
*923 net113
*924 net114
*925 net115
*926 net116
*927 net117
*928 net118
*929 net119
*930 net12
*931 net120
*932 net121
*933 net122
*934 net123
*935 net124
*936 net125
*937 net126
*938 net127
*939 net128
*940 net129
*941 net13
*942 net130
*943 net131
*944 net132
*945 net133
*946 net134
*947 net135
*948 net136
*949 net137
*950 net138
*951 net139
*952 net14
*953 net140
*954 net141
*955 net142
*956 net143
*957 net144
*958 net145
*959 net146
*960 net147
*961 net148
*962 net149
*963 net15
*964 net150
*965 net151
*966 net152
*967 net153
*968 net154
*969 net155
*970 net156
*971 net157
*972 net158
*973 net159
*974 net16
*975 net160
*976 net161
*977 net162
*978 net163
*979 net164
*980 net165
*981 net166
*982 net167
*983 net168
*984 net169
*985 net170
*986 net171
*987 net172
*988 net173
*989 net174
*990 net175
*991 net176
*992 net177
*993 net178
*994 net179
*995 net180
*996 net181
*997 net182
*998 net183
*999 net184
*1000 net185
*1001 net186
*1002 net187
*1003 net188
*1004 net189
*1005 net190
*1006 net191
*1007 net192
*1008 net193
*1009 net194
*1010 net195
*1011 net196
*1012 net197
*1013 net198
*1014 net199
*1015 net2
*1016 net200
*1017 net201
*1018 net202
*1019 net203
*1020 net204
*1021 net205
*1022 net206
*1023 net207
*1024 net208
*1025 net209
*1026 net210
*1027 net211
*1028 net212
*1029 net213
*1030 net214
*1031 net215
*1032 net216
*1033 net3
*1034 net33
*1035 net34
*1036 net35
*1037 net36
*1038 net37
*1039 net38
*1040 net39
*1041 net4
*1042 net40
*1043 net41
*1044 net42
*1045 net43
*1046 net44
*1047 net45
*1048 net46
*1049 net47
*1050 net48
*1051 net49
*1052 net5
*1053 net50
*1054 net51
*1055 net52
*1056 net53
*1057 net54
*1058 net55
*1059 net56
*1060 net57
*1061 net58
*1062 net59
*1063 net6
*1064 net60
*1065 net61
*1066 net62
*1067 net63
*1068 net64
*1069 net65
*1070 net66
*1071 net67
*1072 net68
*1073 net69
*1074 net7
*1075 net70
*1076 net71
*1077 net72
*1078 net73
*1079 net74
*1080 net75
*1081 net76
*1082 net77
*1083 net78
*1084 net79
*1085 net8
*1086 net80
*1087 net81
*1088 net82
*1089 net83
*1090 net84
*1091 net85
*1092 net86
*1093 net87
*1094 net88
*1095 net89
*1096 net9
*1097 net90
*1098 net91
*1099 net92
*1100 net93
*1101 net94
*1102 net95
*1103 net96
*1104 net97
*1105 net98
*1106 net99
*1107 sa\.iloop\[0\]\.jloop\[0\]\.sxy\.acc
*1108 sa\.iloop\[0\]\.jloop\[0\]\.sxy\.out1
*1109 sa\.iloop\[0\]\.jloop\[0\]\.sxy\.out2
*1110 sa\.iloop\[0\]\.jloop\[1\]\.sxy\.acc
*1111 sa\.iloop\[0\]\.jloop\[1\]\.sxy\.out1
*1112 sa\.iloop\[0\]\.jloop\[1\]\.sxy\.out2
*1113 sa\.iloop\[0\]\.jloop\[2\]\.sxy\.acc
*1114 sa\.iloop\[0\]\.jloop\[2\]\.sxy\.out1
*1115 sa\.iloop\[0\]\.jloop\[2\]\.sxy\.out2
*1116 sa\.iloop\[0\]\.jloop\[3\]\.sxy\.acc
*1117 sa\.iloop\[0\]\.jloop\[3\]\.sxy\.out1
*1118 sa\.iloop\[0\]\.jloop\[3\]\.sxy\.out2
*1119 sa\.iloop\[0\]\.jloop\[4\]\.sxy\.acc
*1120 sa\.iloop\[0\]\.jloop\[4\]\.sxy\.out1
*1121 sa\.iloop\[0\]\.jloop\[4\]\.sxy\.out2
*1122 sa\.iloop\[0\]\.jloop\[5\]\.sxy\.acc
*1123 sa\.iloop\[0\]\.jloop\[5\]\.sxy\.out1
*1124 sa\.iloop\[0\]\.jloop\[5\]\.sxy\.out2
*1125 sa\.iloop\[0\]\.jloop\[6\]\.sxy\.acc
*1126 sa\.iloop\[0\]\.jloop\[6\]\.sxy\.out1
*1127 sa\.iloop\[0\]\.jloop\[6\]\.sxy\.out2
*1128 sa\.iloop\[0\]\.jloop\[7\]\.sxy\.acc
*1129 sa\.iloop\[0\]\.jloop\[7\]\.sxy\.out1
*1130 sa\.iloop\[1\]\.jloop\[0\]\.sxy\.acc
*1131 sa\.iloop\[1\]\.jloop\[0\]\.sxy\.out1
*1132 sa\.iloop\[1\]\.jloop\[0\]\.sxy\.out2
*1133 sa\.iloop\[1\]\.jloop\[1\]\.sxy\.acc
*1134 sa\.iloop\[1\]\.jloop\[1\]\.sxy\.out1
*1135 sa\.iloop\[1\]\.jloop\[1\]\.sxy\.out2
*1136 sa\.iloop\[1\]\.jloop\[2\]\.sxy\.acc
*1137 sa\.iloop\[1\]\.jloop\[2\]\.sxy\.out1
*1138 sa\.iloop\[1\]\.jloop\[2\]\.sxy\.out2
*1139 sa\.iloop\[1\]\.jloop\[3\]\.sxy\.acc
*1140 sa\.iloop\[1\]\.jloop\[3\]\.sxy\.out1
*1141 sa\.iloop\[1\]\.jloop\[3\]\.sxy\.out2
*1142 sa\.iloop\[1\]\.jloop\[4\]\.sxy\.acc
*1143 sa\.iloop\[1\]\.jloop\[4\]\.sxy\.out1
*1144 sa\.iloop\[1\]\.jloop\[4\]\.sxy\.out2
*1145 sa\.iloop\[1\]\.jloop\[5\]\.sxy\.acc
*1146 sa\.iloop\[1\]\.jloop\[5\]\.sxy\.out1
*1147 sa\.iloop\[1\]\.jloop\[5\]\.sxy\.out2
*1148 sa\.iloop\[1\]\.jloop\[6\]\.sxy\.acc
*1149 sa\.iloop\[1\]\.jloop\[6\]\.sxy\.out1
*1150 sa\.iloop\[1\]\.jloop\[6\]\.sxy\.out2
*1151 sa\.iloop\[1\]\.jloop\[7\]\.sxy\.acc
*1152 sa\.iloop\[1\]\.jloop\[7\]\.sxy\.out1
*1153 sa\.iloop\[2\]\.jloop\[0\]\.sxy\.acc
*1154 sa\.iloop\[2\]\.jloop\[0\]\.sxy\.out1
*1155 sa\.iloop\[2\]\.jloop\[0\]\.sxy\.out2
*1156 sa\.iloop\[2\]\.jloop\[1\]\.sxy\.acc
*1157 sa\.iloop\[2\]\.jloop\[1\]\.sxy\.out1
*1158 sa\.iloop\[2\]\.jloop\[1\]\.sxy\.out2
*1159 sa\.iloop\[2\]\.jloop\[2\]\.sxy\.acc
*1160 sa\.iloop\[2\]\.jloop\[2\]\.sxy\.out1
*1161 sa\.iloop\[2\]\.jloop\[2\]\.sxy\.out2
*1162 sa\.iloop\[2\]\.jloop\[3\]\.sxy\.acc
*1163 sa\.iloop\[2\]\.jloop\[3\]\.sxy\.out1
*1164 sa\.iloop\[2\]\.jloop\[3\]\.sxy\.out2
*1165 sa\.iloop\[2\]\.jloop\[4\]\.sxy\.acc
*1166 sa\.iloop\[2\]\.jloop\[4\]\.sxy\.out1
*1167 sa\.iloop\[2\]\.jloop\[4\]\.sxy\.out2
*1168 sa\.iloop\[2\]\.jloop\[5\]\.sxy\.acc
*1169 sa\.iloop\[2\]\.jloop\[5\]\.sxy\.out1
*1170 sa\.iloop\[2\]\.jloop\[5\]\.sxy\.out2
*1171 sa\.iloop\[2\]\.jloop\[6\]\.sxy\.acc
*1172 sa\.iloop\[2\]\.jloop\[6\]\.sxy\.out1
*1173 sa\.iloop\[2\]\.jloop\[6\]\.sxy\.out2
*1174 sa\.iloop\[2\]\.jloop\[7\]\.sxy\.acc
*1175 sa\.iloop\[2\]\.jloop\[7\]\.sxy\.out1
*1176 sa\.iloop\[3\]\.jloop\[0\]\.sxy\.acc
*1177 sa\.iloop\[3\]\.jloop\[0\]\.sxy\.out1
*1178 sa\.iloop\[3\]\.jloop\[0\]\.sxy\.out2
*1179 sa\.iloop\[3\]\.jloop\[1\]\.sxy\.acc
*1180 sa\.iloop\[3\]\.jloop\[1\]\.sxy\.out1
*1181 sa\.iloop\[3\]\.jloop\[1\]\.sxy\.out2
*1182 sa\.iloop\[3\]\.jloop\[2\]\.sxy\.acc
*1183 sa\.iloop\[3\]\.jloop\[2\]\.sxy\.out1
*1184 sa\.iloop\[3\]\.jloop\[2\]\.sxy\.out2
*1185 sa\.iloop\[3\]\.jloop\[3\]\.sxy\.acc
*1186 sa\.iloop\[3\]\.jloop\[3\]\.sxy\.out1
*1187 sa\.iloop\[3\]\.jloop\[3\]\.sxy\.out2
*1188 sa\.iloop\[3\]\.jloop\[4\]\.sxy\.acc
*1189 sa\.iloop\[3\]\.jloop\[4\]\.sxy\.out1
*1190 sa\.iloop\[3\]\.jloop\[4\]\.sxy\.out2
*1191 sa\.iloop\[3\]\.jloop\[5\]\.sxy\.acc
*1192 sa\.iloop\[3\]\.jloop\[5\]\.sxy\.out1
*1193 sa\.iloop\[3\]\.jloop\[5\]\.sxy\.out2
*1194 sa\.iloop\[3\]\.jloop\[6\]\.sxy\.acc
*1195 sa\.iloop\[3\]\.jloop\[6\]\.sxy\.out1
*1196 sa\.iloop\[3\]\.jloop\[6\]\.sxy\.out2
*1197 sa\.iloop\[3\]\.jloop\[7\]\.sxy\.acc
*1198 sa\.iloop\[3\]\.jloop\[7\]\.sxy\.out1
*1199 sa\.iloop\[4\]\.jloop\[0\]\.sxy\.acc
*1200 sa\.iloop\[4\]\.jloop\[0\]\.sxy\.out1
*1201 sa\.iloop\[4\]\.jloop\[0\]\.sxy\.out2
*1202 sa\.iloop\[4\]\.jloop\[1\]\.sxy\.acc
*1203 sa\.iloop\[4\]\.jloop\[1\]\.sxy\.out1
*1204 sa\.iloop\[4\]\.jloop\[1\]\.sxy\.out2
*1205 sa\.iloop\[4\]\.jloop\[2\]\.sxy\.acc
*1206 sa\.iloop\[4\]\.jloop\[2\]\.sxy\.out1
*1207 sa\.iloop\[4\]\.jloop\[2\]\.sxy\.out2
*1208 sa\.iloop\[4\]\.jloop\[3\]\.sxy\.acc
*1209 sa\.iloop\[4\]\.jloop\[3\]\.sxy\.out1
*1210 sa\.iloop\[4\]\.jloop\[3\]\.sxy\.out2
*1211 sa\.iloop\[4\]\.jloop\[4\]\.sxy\.acc
*1212 sa\.iloop\[4\]\.jloop\[4\]\.sxy\.out1
*1213 sa\.iloop\[4\]\.jloop\[4\]\.sxy\.out2
*1214 sa\.iloop\[4\]\.jloop\[5\]\.sxy\.acc
*1215 sa\.iloop\[4\]\.jloop\[5\]\.sxy\.out1
*1216 sa\.iloop\[4\]\.jloop\[5\]\.sxy\.out2
*1217 sa\.iloop\[4\]\.jloop\[6\]\.sxy\.acc
*1218 sa\.iloop\[4\]\.jloop\[6\]\.sxy\.out1
*1219 sa\.iloop\[4\]\.jloop\[6\]\.sxy\.out2
*1220 sa\.iloop\[4\]\.jloop\[7\]\.sxy\.acc
*1221 sa\.iloop\[4\]\.jloop\[7\]\.sxy\.out1
*1222 sa\.iloop\[5\]\.jloop\[0\]\.sxy\.acc
*1223 sa\.iloop\[5\]\.jloop\[0\]\.sxy\.out1
*1224 sa\.iloop\[5\]\.jloop\[0\]\.sxy\.out2
*1225 sa\.iloop\[5\]\.jloop\[1\]\.sxy\.acc
*1226 sa\.iloop\[5\]\.jloop\[1\]\.sxy\.out1
*1227 sa\.iloop\[5\]\.jloop\[1\]\.sxy\.out2
*1228 sa\.iloop\[5\]\.jloop\[2\]\.sxy\.acc
*1229 sa\.iloop\[5\]\.jloop\[2\]\.sxy\.out1
*1230 sa\.iloop\[5\]\.jloop\[2\]\.sxy\.out2
*1231 sa\.iloop\[5\]\.jloop\[3\]\.sxy\.acc
*1232 sa\.iloop\[5\]\.jloop\[3\]\.sxy\.out1
*1233 sa\.iloop\[5\]\.jloop\[3\]\.sxy\.out2
*1234 sa\.iloop\[5\]\.jloop\[4\]\.sxy\.acc
*1235 sa\.iloop\[5\]\.jloop\[4\]\.sxy\.out1
*1236 sa\.iloop\[5\]\.jloop\[4\]\.sxy\.out2
*1237 sa\.iloop\[5\]\.jloop\[5\]\.sxy\.acc
*1238 sa\.iloop\[5\]\.jloop\[5\]\.sxy\.out1
*1239 sa\.iloop\[5\]\.jloop\[5\]\.sxy\.out2
*1240 sa\.iloop\[5\]\.jloop\[6\]\.sxy\.acc
*1241 sa\.iloop\[5\]\.jloop\[6\]\.sxy\.out1
*1242 sa\.iloop\[5\]\.jloop\[6\]\.sxy\.out2
*1243 sa\.iloop\[5\]\.jloop\[7\]\.sxy\.acc
*1244 sa\.iloop\[5\]\.jloop\[7\]\.sxy\.out1
*1245 sa\.iloop\[6\]\.jloop\[0\]\.sxy\.acc
*1246 sa\.iloop\[6\]\.jloop\[0\]\.sxy\.out1
*1247 sa\.iloop\[6\]\.jloop\[0\]\.sxy\.out2
*1248 sa\.iloop\[6\]\.jloop\[1\]\.sxy\.acc
*1249 sa\.iloop\[6\]\.jloop\[1\]\.sxy\.out1
*1250 sa\.iloop\[6\]\.jloop\[1\]\.sxy\.out2
*1251 sa\.iloop\[6\]\.jloop\[2\]\.sxy\.acc
*1252 sa\.iloop\[6\]\.jloop\[2\]\.sxy\.out1
*1253 sa\.iloop\[6\]\.jloop\[2\]\.sxy\.out2
*1254 sa\.iloop\[6\]\.jloop\[3\]\.sxy\.acc
*1255 sa\.iloop\[6\]\.jloop\[3\]\.sxy\.out1
*1256 sa\.iloop\[6\]\.jloop\[3\]\.sxy\.out2
*1257 sa\.iloop\[6\]\.jloop\[4\]\.sxy\.acc
*1258 sa\.iloop\[6\]\.jloop\[4\]\.sxy\.out1
*1259 sa\.iloop\[6\]\.jloop\[4\]\.sxy\.out2
*1260 sa\.iloop\[6\]\.jloop\[5\]\.sxy\.acc
*1261 sa\.iloop\[6\]\.jloop\[5\]\.sxy\.out1
*1262 sa\.iloop\[6\]\.jloop\[5\]\.sxy\.out2
*1263 sa\.iloop\[6\]\.jloop\[6\]\.sxy\.acc
*1264 sa\.iloop\[6\]\.jloop\[6\]\.sxy\.out1
*1265 sa\.iloop\[6\]\.jloop\[6\]\.sxy\.out2
*1266 sa\.iloop\[6\]\.jloop\[7\]\.sxy\.acc
*1267 sa\.iloop\[6\]\.jloop\[7\]\.sxy\.out1
*1268 sa\.iloop\[7\]\.jloop\[0\]\.sxy\.acc
*1269 sa\.iloop\[7\]\.jloop\[0\]\.sxy\.out1
*1270 sa\.iloop\[7\]\.jloop\[0\]\.sxy\.out2
*1271 sa\.iloop\[7\]\.jloop\[1\]\.sxy\.acc
*1272 sa\.iloop\[7\]\.jloop\[1\]\.sxy\.out1
*1273 sa\.iloop\[7\]\.jloop\[1\]\.sxy\.out2
*1274 sa\.iloop\[7\]\.jloop\[2\]\.sxy\.acc
*1275 sa\.iloop\[7\]\.jloop\[2\]\.sxy\.out1
*1276 sa\.iloop\[7\]\.jloop\[2\]\.sxy\.out2
*1277 sa\.iloop\[7\]\.jloop\[3\]\.sxy\.acc
*1278 sa\.iloop\[7\]\.jloop\[3\]\.sxy\.out1
*1279 sa\.iloop\[7\]\.jloop\[3\]\.sxy\.out2
*1280 sa\.iloop\[7\]\.jloop\[4\]\.sxy\.acc
*1281 sa\.iloop\[7\]\.jloop\[4\]\.sxy\.out1
*1282 sa\.iloop\[7\]\.jloop\[4\]\.sxy\.out2
*1283 sa\.iloop\[7\]\.jloop\[5\]\.sxy\.acc
*1284 sa\.iloop\[7\]\.jloop\[5\]\.sxy\.out1
*1285 sa\.iloop\[7\]\.jloop\[5\]\.sxy\.out2
*1286 sa\.iloop\[7\]\.jloop\[6\]\.sxy\.acc
*1287 sa\.iloop\[7\]\.jloop\[6\]\.sxy\.out1
*1288 sa\.iloop\[7\]\.jloop\[6\]\.sxy\.out2
*1289 sa\.iloop\[7\]\.jloop\[7\]\.sxy\.acc
*1290 sa\.iloop\[7\]\.jloop\[7\]\.sxy\.out1
*1291 sys_in1_buffer\[0\]
*1292 sys_in1_buffer\[1\]
*1293 sys_in1_buffer\[2\]
*1294 sys_in1_buffer\[3\]
*1295 sys_in1_buffer\[4\]
*1296 sys_in1_buffer\[5\]
*1297 sys_in1_buffer\[6\]
*1298 sys_in1_buffer\[7\]
*1299 sys_in1_next
*1300 text_idx\[0\]
*1301 text_idx\[1\]
*1302 text_idx\[2\]
*1303 text_idx\[3\]
*1304 text_idx\[4\]
*1305 text_idx\[5\]
*1306 text_idx\[6\]
*1307 ANTENNA_1
*1308 ANTENNA_2
*1309 ANTENNA_3
*1310 ANTENNA_4
*1311 ANTENNA_5
*1312 ANTENNA_6
*1313 ANTENNA_7
*1314 FILLER_0_0_109
*1315 FILLER_0_0_113
*1316 FILLER_0_0_125
*1317 FILLER_0_0_137
*1318 FILLER_0_0_141
*1319 FILLER_0_0_15
*1320 FILLER_0_0_153
*1321 FILLER_0_0_165
*1322 FILLER_0_0_169
*1323 FILLER_0_0_181
*1324 FILLER_0_0_193
*1325 FILLER_0_0_197
*1326 FILLER_0_0_209
*1327 FILLER_0_0_221
*1328 FILLER_0_0_225
*1329 FILLER_0_0_237
*1330 FILLER_0_0_249
*1331 FILLER_0_0_253
*1332 FILLER_0_0_265
*1333 FILLER_0_0_27
*1334 FILLER_0_0_277
*1335 FILLER_0_0_281
*1336 FILLER_0_0_29
*1337 FILLER_0_0_293
*1338 FILLER_0_0_3
*1339 FILLER_0_0_305
*1340 FILLER_0_0_309
*1341 FILLER_0_0_321
*1342 FILLER_0_0_333
*1343 FILLER_0_0_337
*1344 FILLER_0_0_349
*1345 FILLER_0_0_41
*1346 FILLER_0_0_53
*1347 FILLER_0_0_57
*1348 FILLER_0_0_69
*1349 FILLER_0_0_81
*1350 FILLER_0_0_85
*1351 FILLER_0_0_97
*1352 FILLER_0_10_138
*1353 FILLER_0_10_149
*1354 FILLER_0_10_153
*1355 FILLER_0_10_197
*1356 FILLER_0_10_22
*1357 FILLER_0_10_230
*1358 FILLER_0_10_253
*1359 FILLER_0_10_257
*1360 FILLER_0_10_283
*1361 FILLER_0_10_29
*1362 FILLER_0_10_3
*1363 FILLER_0_10_309
*1364 FILLER_0_10_321
*1365 FILLER_0_10_333
*1366 FILLER_0_10_59
*1367 FILLER_0_10_85
*1368 FILLER_0_11_111
*1369 FILLER_0_11_120
*1370 FILLER_0_11_128
*1371 FILLER_0_11_169
*1372 FILLER_0_11_183
*1373 FILLER_0_11_205
*1374 FILLER_0_11_21
*1375 FILLER_0_11_3
*1376 FILLER_0_11_309
*1377 FILLER_0_11_326
*1378 FILLER_0_11_340
*1379 FILLER_0_11_348
*1380 FILLER_0_11_68
*1381 FILLER_0_11_88
*1382 FILLER_0_11_98
*1383 FILLER_0_12_108
*1384 FILLER_0_12_112
*1385 FILLER_0_12_137
*1386 FILLER_0_12_146
*1387 FILLER_0_12_19
*1388 FILLER_0_12_227
*1389 FILLER_0_12_268
*1390 FILLER_0_12_307
*1391 FILLER_0_12_317
*1392 FILLER_0_12_325
*1393 FILLER_0_12_46
*1394 FILLER_0_12_67
*1395 FILLER_0_13_110
*1396 FILLER_0_13_169
*1397 FILLER_0_13_178
*1398 FILLER_0_13_182
*1399 FILLER_0_13_222
*1400 FILLER_0_13_225
*1401 FILLER_0_13_264
*1402 FILLER_0_13_3
*1403 FILLER_0_13_313
*1404 FILLER_0_13_325
*1405 FILLER_0_13_335
*1406 FILLER_0_13_348
*1407 FILLER_0_13_47
*1408 FILLER_0_13_73
*1409 FILLER_0_14_130
*1410 FILLER_0_14_194
*1411 FILLER_0_14_197
*1412 FILLER_0_14_21
*1413 FILLER_0_14_218
*1414 FILLER_0_14_231
*1415 FILLER_0_14_253
*1416 FILLER_0_14_279
*1417 FILLER_0_14_3
*1418 FILLER_0_14_348
*1419 FILLER_0_14_40
*1420 FILLER_0_14_44
*1421 FILLER_0_14_51
*1422 FILLER_0_14_85
*1423 FILLER_0_15_113
*1424 FILLER_0_15_130
*1425 FILLER_0_15_147
*1426 FILLER_0_15_161
*1427 FILLER_0_15_177
*1428 FILLER_0_15_214
*1429 FILLER_0_15_286
*1430 FILLER_0_15_3
*1431 FILLER_0_15_306
*1432 FILLER_0_15_327
*1433 FILLER_0_15_334
*1434 FILLER_0_15_342
*1435 FILLER_0_15_39
*1436 FILLER_0_15_54
*1437 FILLER_0_15_88
*1438 FILLER_0_16_11
*1439 FILLER_0_16_130
*1440 FILLER_0_16_141
*1441 FILLER_0_16_152
*1442 FILLER_0_16_166
*1443 FILLER_0_16_195
*1444 FILLER_0_16_202
*1445 FILLER_0_16_221
*1446 FILLER_0_16_25
*1447 FILLER_0_16_29
*1448 FILLER_0_16_3
*1449 FILLER_0_16_338
*1450 FILLER_0_16_349
*1451 FILLER_0_16_38
*1452 FILLER_0_16_82
*1453 FILLER_0_17_132
*1454 FILLER_0_17_145
*1455 FILLER_0_17_164
*1456 FILLER_0_17_169
*1457 FILLER_0_17_178
*1458 FILLER_0_17_191
*1459 FILLER_0_17_20
*1460 FILLER_0_17_225
*1461 FILLER_0_17_279
*1462 FILLER_0_17_3
*1463 FILLER_0_17_321
*1464 FILLER_0_17_334
*1465 FILLER_0_17_43
*1466 FILLER_0_18_139
*1467 FILLER_0_18_16
*1468 FILLER_0_18_167
*1469 FILLER_0_18_178
*1470 FILLER_0_18_185
*1471 FILLER_0_18_213
*1472 FILLER_0_18_22
*1473 FILLER_0_18_250
*1474 FILLER_0_18_253
*1475 FILLER_0_18_278
*1476 FILLER_0_18_3
*1477 FILLER_0_18_329
*1478 FILLER_0_18_67
*1479 FILLER_0_18_7
*1480 FILLER_0_18_85
*1481 FILLER_0_19_172
*1482 FILLER_0_19_281
*1483 FILLER_0_19_3
*1484 FILLER_0_19_346
*1485 FILLER_0_19_350
*1486 FILLER_0_19_38
*1487 FILLER_0_19_46
*1488 FILLER_0_19_62
*1489 FILLER_0_19_71
*1490 FILLER_0_1_105
*1491 FILLER_0_1_111
*1492 FILLER_0_1_113
*1493 FILLER_0_1_125
*1494 FILLER_0_1_137
*1495 FILLER_0_1_149
*1496 FILLER_0_1_15
*1497 FILLER_0_1_161
*1498 FILLER_0_1_167
*1499 FILLER_0_1_169
*1500 FILLER_0_1_181
*1501 FILLER_0_1_193
*1502 FILLER_0_1_205
*1503 FILLER_0_1_217
*1504 FILLER_0_1_223
*1505 FILLER_0_1_225
*1506 FILLER_0_1_237
*1507 FILLER_0_1_249
*1508 FILLER_0_1_261
*1509 FILLER_0_1_27
*1510 FILLER_0_1_273
*1511 FILLER_0_1_279
*1512 FILLER_0_1_281
*1513 FILLER_0_1_293
*1514 FILLER_0_1_3
*1515 FILLER_0_1_305
*1516 FILLER_0_1_317
*1517 FILLER_0_1_329
*1518 FILLER_0_1_335
*1519 FILLER_0_1_337
*1520 FILLER_0_1_349
*1521 FILLER_0_1_39
*1522 FILLER_0_1_51
*1523 FILLER_0_1_55
*1524 FILLER_0_1_57
*1525 FILLER_0_1_69
*1526 FILLER_0_1_81
*1527 FILLER_0_1_93
*1528 FILLER_0_20_100
*1529 FILLER_0_20_11
*1530 FILLER_0_20_15
*1531 FILLER_0_20_156
*1532 FILLER_0_20_161
*1533 FILLER_0_20_187
*1534 FILLER_0_20_19
*1535 FILLER_0_20_25
*1536 FILLER_0_20_251
*1537 FILLER_0_20_269
*1538 FILLER_0_20_283
*1539 FILLER_0_20_3
*1540 FILLER_0_20_320
*1541 FILLER_0_20_64
*1542 FILLER_0_20_7
*1543 FILLER_0_20_83
*1544 FILLER_0_21_11
*1545 FILLER_0_21_132
*1546 FILLER_0_21_150
*1547 FILLER_0_21_169
*1548 FILLER_0_21_173
*1549 FILLER_0_21_21
*1550 FILLER_0_21_229
*1551 FILLER_0_21_28
*1552 FILLER_0_21_3
*1553 FILLER_0_21_343
*1554 FILLER_0_21_77
*1555 FILLER_0_22_116
*1556 FILLER_0_22_164
*1557 FILLER_0_22_19
*1558 FILLER_0_22_210
*1559 FILLER_0_22_23
*1560 FILLER_0_22_241
*1561 FILLER_0_22_251
*1562 FILLER_0_22_260
*1563 FILLER_0_22_29
*1564 FILLER_0_22_307
*1565 FILLER_0_22_312
*1566 FILLER_0_22_334
*1567 FILLER_0_23_15
*1568 FILLER_0_23_157
*1569 FILLER_0_23_169
*1570 FILLER_0_23_19
*1571 FILLER_0_23_206
*1572 FILLER_0_23_214
*1573 FILLER_0_23_262
*1574 FILLER_0_23_279
*1575 FILLER_0_23_281
*1576 FILLER_0_23_290
*1577 FILLER_0_23_297
*1578 FILLER_0_23_3
*1579 FILLER_0_23_320
*1580 FILLER_0_23_329
*1581 FILLER_0_23_345
*1582 FILLER_0_23_55
*1583 FILLER_0_23_57
*1584 FILLER_0_23_74
*1585 FILLER_0_24_102
*1586 FILLER_0_24_130
*1587 FILLER_0_24_158
*1588 FILLER_0_24_180
*1589 FILLER_0_24_195
*1590 FILLER_0_24_197
*1591 FILLER_0_24_20
*1592 FILLER_0_24_232
*1593 FILLER_0_24_236
*1594 FILLER_0_24_253
*1595 FILLER_0_24_262
*1596 FILLER_0_24_272
*1597 FILLER_0_24_3
*1598 FILLER_0_24_309
*1599 FILLER_0_24_329
*1600 FILLER_0_24_349
*1601 FILLER_0_24_53
*1602 FILLER_0_24_85
*1603 FILLER_0_25_10
*1604 FILLER_0_25_111
*1605 FILLER_0_25_128
*1606 FILLER_0_25_14
*1607 FILLER_0_25_150
*1608 FILLER_0_25_198
*1609 FILLER_0_25_24
*1610 FILLER_0_25_252
*1611 FILLER_0_25_281
*1612 FILLER_0_25_289
*1613 FILLER_0_25_3
*1614 FILLER_0_25_309
*1615 FILLER_0_25_350
*1616 FILLER_0_25_57
*1617 FILLER_0_26_113
*1618 FILLER_0_26_131
*1619 FILLER_0_26_16
*1620 FILLER_0_26_165
*1621 FILLER_0_26_245
*1622 FILLER_0_26_25
*1623 FILLER_0_26_256
*1624 FILLER_0_26_267
*1625 FILLER_0_26_278
*1626 FILLER_0_26_282
*1627 FILLER_0_26_29
*1628 FILLER_0_26_3
*1629 FILLER_0_26_333
*1630 FILLER_0_26_63
*1631 FILLER_0_26_7
*1632 FILLER_0_26_85
*1633 FILLER_0_26_96
*1634 FILLER_0_27_104
*1635 FILLER_0_27_113
*1636 FILLER_0_27_141
*1637 FILLER_0_27_167
*1638 FILLER_0_27_175
*1639 FILLER_0_27_191
*1640 FILLER_0_27_200
*1641 FILLER_0_27_244
*1642 FILLER_0_27_251
*1643 FILLER_0_27_259
*1644 FILLER_0_27_263
*1645 FILLER_0_27_274
*1646 FILLER_0_27_292
*1647 FILLER_0_27_3
*1648 FILLER_0_27_335
*1649 FILLER_0_27_343
*1650 FILLER_0_27_88
*1651 FILLER_0_28_110
*1652 FILLER_0_28_12
*1653 FILLER_0_28_139
*1654 FILLER_0_28_163
*1655 FILLER_0_28_176
*1656 FILLER_0_28_23
*1657 FILLER_0_28_240
*1658 FILLER_0_28_263
*1659 FILLER_0_28_281
*1660 FILLER_0_28_3
*1661 FILLER_0_28_305
*1662 FILLER_0_28_313
*1663 FILLER_0_28_330
*1664 FILLER_0_29_109
*1665 FILLER_0_29_113
*1666 FILLER_0_29_161
*1667 FILLER_0_29_167
*1668 FILLER_0_29_173
*1669 FILLER_0_29_195
*1670 FILLER_0_29_205
*1671 FILLER_0_29_213
*1672 FILLER_0_29_220
*1673 FILLER_0_29_23
*1674 FILLER_0_29_233
*1675 FILLER_0_29_263
*1676 FILLER_0_29_278
*1677 FILLER_0_29_281