*SPEF "ieee 1481-1999"
*DESIGN "tt_um_nickjhay_processor"
*DATE "11:11:11 Fri 11 11, 1111"
*VENDOR "OpenRCX"
*PROGRAM "Parallel Extraction"
*VERSION "1.0"
*DESIGN_FLOW "NAME_SCOPE LOCAL" "PIN_CAP NONE"
*DIVIDER /
*DELIMITER :
*BUS_DELIMITER []
*T_UNIT 1 NS
*C_UNIT 1 PF
*R_UNIT 1 OHM
*L_UNIT 1 HENRY

*NAME_MAP
*3 clk
*4 ena
*5 rst_n
*6 ui_in[0]
*7 ui_in[1]
*8 ui_in[2]
*9 ui_in[3]
*10 ui_in[4]
*11 ui_in[5]
*12 ui_in[6]
*13 ui_in[7]
*14 uio_in[0]
*15 uio_in[1]
*16 uio_in[2]
*17 uio_in[3]
*18 uio_in[4]
*19 uio_in[5]
*20 uio_in[6]
*21 uio_in[7]
*22 net14
*23 net15
*24 net16
*25 net17
*26 net18
*27 net19
*28 net20
*29 net21
*30 net22
*31 net23
*32 net24
*33 net25
*34 net26
*35 net27
*36 net28
*37 net29
*38 uo_out[0]
*39 uo_out[1]
*40 uo_out[2]
*41 uo_out[3]
*42 uo_out[4]
*43 uo_out[5]
*44 uo_out[6]
*45 uo_out[7]
*46 _0000_
*47 _0001_
*48 _0002_
*49 _0003_
*50 _0004_
*51 _0005_
*52 _0006_
*53 _0007_
*54 _0008_
*55 _0009_
*56 _0010_
*57 _0011_
*58 _0012_
*59 _0013_
*60 _0014_
*61 _0015_
*62 _0016_
*63 _0017_
*64 _0018_
*65 _0019_
*66 _0020_
*67 _0021_
*68 _0022_
*69 _0023_
*70 _0024_
*71 _0025_
*72 _0026_
*73 _0027_
*74 _0028_
*75 _0029_
*76 _0030_
*77 _0031_
*78 _0032_
*79 _0033_
*80 _0034_
*81 _0035_
*82 _0036_
*83 _0037_
*84 _0038_
*85 _0039_
*86 _0040_
*87 _0041_
*88 _0042_
*89 _0043_
*90 _0044_
*91 _0045_
*92 _0046_
*93 _0047_
*94 _0048_
*95 _0049_
*96 _0050_
*97 _0051_
*98 _0052_
*99 _0053_
*100 _0054_
*101 _0055_
*102 _0056_
*103 _0057_
*104 _0058_
*105 _0059_
*106 _0060_
*107 _0061_
*108 _0062_
*109 _0063_
*110 _0064_
*111 _0065_
*112 _0066_
*113 _0067_
*114 _0068_
*115 _0069_
*116 _0070_
*117 _0071_
*118 _0072_
*119 _0073_
*120 _0074_
*121 _0075_
*122 _0076_
*123 _0077_
*124 _0078_
*125 _0079_
*126 _0080_
*127 _0081_
*128 _0082_
*129 _0083_
*130 _0084_
*131 _0085_
*132 _0086_
*133 _0087_
*134 _0088_
*135 _0089_
*136 _0090_
*137 _0091_
*138 _0092_
*139 _0093_
*140 _0094_
*141 _0095_
*142 _0096_
*143 _0097_
*144 _0098_
*145 _0099_
*146 _0100_
*147 _0101_
*148 _0102_
*149 _0103_
*150 _0104_
*151 _0105_
*152 _0106_
*153 _0107_
*154 _0108_
*155 _0109_
*156 _0110_
*157 _0111_
*158 _0112_
*159 _0113_
*160 _0114_
*161 _0115_
*162 _0116_
*163 _0117_
*164 _0118_
*165 _0119_
*166 _0120_
*167 _0121_
*168 _0122_
*169 _0123_
*170 _0124_
*171 _0125_
*172 _0126_
*173 _0127_
*174 _0128_
*175 _0129_
*176 _0130_
*177 _0131_
*178 _0132_
*179 _0133_
*180 _0134_
*181 _0135_
*182 _0136_
*183 _0137_
*184 _0138_
*185 _0139_
*186 _0140_
*187 _0141_
*188 _0142_
*189 _0143_
*190 _0144_
*191 _0145_
*192 _0146_
*193 _0147_
*194 _0148_
*195 _0149_
*196 _0150_
*197 _0151_
*198 _0152_
*199 _0153_
*200 _0154_
*201 _0155_
*202 _0156_
*203 _0157_
*204 _0158_
*205 _0159_
*206 _0160_
*207 _0161_
*208 _0162_
*209 _0163_
*210 _0164_
*211 _0165_
*212 _0166_
*213 _0167_
*214 _0168_
*215 _0169_
*216 _0170_
*217 _0171_
*218 _0172_
*219 _0173_
*220 _0174_
*221 _0175_
*222 _0176_
*223 _0177_
*224 _0178_
*225 _0179_
*226 _0180_
*227 _0181_
*228 _0182_
*229 _0183_
*230 _0184_
*231 _0185_
*232 _0186_
*233 _0187_
*234 _0188_
*235 _0189_
*236 _0190_
*237 _0191_
*238 _0192_
*239 _0193_
*240 _0194_
*241 _0195_
*242 _0196_
*243 _0197_
*244 _0198_
*245 _0199_
*246 _0200_
*247 _0201_
*248 _0202_
*249 _0203_
*250 _0204_
*251 _0205_
*252 _0206_
*253 _0207_
*254 _0208_
*255 _0209_
*256 _0210_
*257 _0211_
*258 _0212_
*259 _0213_
*260 _0214_
*261 _0215_
*262 _0216_
*263 _0217_
*264 _0218_
*265 _0219_
*266 _0220_
*267 _0221_
*268 _0222_
*269 _0223_
*270 _0224_
*271 _0225_
*272 _0226_
*273 _0227_
*274 _0228_
*275 _0229_
*276 _0230_
*277 _0231_
*278 _0232_
*279 _0233_
*280 _0234_
*281 _0235_
*282 _0236_
*283 _0237_
*284 _0238_
*285 _0239_
*286 _0240_
*287 _0241_
*288 _0242_
*289 _0243_
*290 _0244_
*291 _0245_
*292 _0246_
*293 _0247_
*294 _0248_
*295 _0249_
*296 _0250_
*297 _0251_
*298 _0252_
*299 _0253_
*300 _0254_
*301 _0255_
*302 _0256_
*303 _0257_
*304 _0258_
*305 _0259_
*306 _0260_
*307 _0261_
*308 _0262_
*309 _0263_
*310 _0264_
*311 _0265_
*312 _0266_
*313 _0267_
*314 _0268_
*315 _0269_
*316 _0270_
*317 _0271_
*318 _0272_
*319 _0273_
*320 _0274_
*321 _0275_
*322 _0276_
*323 _0277_
*324 _0278_
*325 _0279_
*326 _0280_
*327 _0281_
*328 _0282_
*329 _0283_
*330 _0284_
*331 _0285_
*332 _0286_
*333 _0287_
*334 _0288_
*335 _0289_
*336 _0290_
*337 _0291_
*338 _0292_
*339 _0293_
*340 _0294_
*341 _0295_
*342 _0296_
*343 _0297_
*344 _0298_
*345 _0299_
*346 _0300_
*347 _0301_
*348 _0302_
*349 _0303_
*350 _0304_
*351 _0305_
*352 _0306_
*353 _0307_
*354 _0308_
*355 _0309_
*356 _0310_
*357 _0311_
*358 _0312_
*359 _0313_
*360 _0314_
*361 _0315_
*362 _0316_
*363 _0317_
*364 _0318_
*365 _0319_
*366 _0320_
*367 _0321_
*368 _0322_
*369 _0323_
*370 _0324_
*371 _0325_
*372 _0326_
*373 _0327_
*374 _0328_
*375 _0329_
*376 _0330_
*377 _0331_
*378 _0332_
*379 _0333_
*380 _0334_
*381 _0335_
*382 _0336_
*383 _0337_
*384 _0338_
*385 _0339_
*386 _0340_
*387 _0341_
*388 _0342_
*389 _0343_
*390 _0344_
*391 _0345_
*392 _0346_
*393 _0347_
*394 _0348_
*395 _0349_
*396 _0350_
*397 _0351_
*398 _0352_
*399 _0353_
*400 _0354_
*401 _0355_
*402 _0356_
*403 _0357_
*404 _0358_
*405 _0359_
*406 _0360_
*407 _0361_
*408 _0362_
*409 _0363_
*410 _0364_
*411 _0365_
*412 _0366_
*413 _0367_
*414 _0368_
*415 _0369_
*416 _0370_
*417 _0371_
*418 _0372_
*419 _0373_
*420 _0374_
*421 _0375_
*422 _0376_
*423 _0377_
*424 _0378_
*425 _0379_
*426 _0380_
*427 _0381_
*428 _0382_
*429 _0383_
*430 _0384_
*431 _0385_
*432 _0386_
*433 _0387_
*434 _0388_
*435 _0389_
*436 _0390_
*437 _0391_
*438 _0392_
*439 _0393_
*440 _0394_
*441 _0395_
*442 _0396_
*443 _0397_
*444 _0398_
*445 _0399_
*446 _0400_
*447 _0401_
*448 _0402_
*449 _0403_
*450 _0404_
*451 _0405_
*452 _0406_
*453 _0407_
*454 _0408_
*455 _0409_
*456 _0410_
*457 _0411_
*458 _0412_
*459 _0413_
*460 _0414_
*461 _0415_
*462 _0416_
*463 _0417_
*464 _0418_
*465 _0419_
*466 _0420_
*467 _0421_
*468 _0422_
*469 _0423_
*470 _0424_
*471 _0425_
*472 _0426_
*473 _0427_
*474 _0428_
*475 _0429_
*476 _0430_
*477 _0431_
*478 _0432_
*479 _0433_
*480 _0434_
*481 _0435_
*482 _0436_
*483 _0437_
*484 _0438_
*485 _0439_
*486 _0440_
*487 _0441_
*488 _0442_
*489 _0443_
*490 _0444_
*491 _0445_
*492 _0446_
*493 _0447_
*494 _0448_
*495 _0449_
*496 _0450_
*497 _0451_
*498 _0452_
*499 _0453_
*500 _0454_
*501 _0455_
*502 _0456_
*503 _0457_
*504 _0458_
*505 _0459_
*506 _0460_
*507 _0461_
*508 _0462_
*509 _0463_
*510 _0464_
*511 _0465_
*512 _0466_
*513 _0467_
*514 _0468_
*515 _0469_
*516 _0470_
*517 _0471_
*518 _0472_
*519 _0473_
*520 _0474_
*521 _0475_
*522 _0476_
*523 _0477_
*524 _0478_
*525 _0479_
*526 _0480_
*527 _0481_
*528 _0482_
*529 _0483_
*530 _0484_
*531 _0485_
*532 _0486_
*533 _0487_
*534 _0488_
*535 _0489_
*536 _0490_
*537 _0491_
*538 _0492_
*539 _0493_
*540 _0494_
*541 _0495_
*542 _0496_
*543 _0497_
*544 _0498_
*545 _0499_
*546 _0500_
*547 _0501_
*548 _0502_
*549 _0503_
*550 _0504_
*551 _0505_
*552 _0506_
*553 _0507_
*554 _0508_
*555 _0509_
*556 _0510_
*557 _0511_
*558 _0512_
*559 _0513_
*560 _0514_
*561 _0515_
*562 _0516_
*563 _0517_
*564 _0518_
*565 _0519_
*566 _0520_
*567 _0521_
*568 _0522_
*569 _0523_
*570 _0524_
*571 _0525_
*572 _0526_
*573 _0527_
*574 _0528_
*575 _0529_
*576 _0530_
*577 _0531_
*578 _0532_
*579 _0533_
*580 _0534_
*581 _0535_
*582 _0536_
*583 _0537_
*584 _0538_
*585 _0539_
*586 _0540_
*587 _0541_
*588 _0542_
*589 _0543_
*590 _0544_
*591 _0545_
*592 _0546_
*593 _0547_
*594 _0548_
*595 _0549_
*596 _0550_
*597 _0551_
*598 _0552_
*599 _0553_
*600 _0554_
*601 _0555_
*602 _0556_
*603 _0557_
*604 _0558_
*605 _0559_
*606 _0560_
*607 _0561_
*608 _0562_
*609 _0563_
*610 _0564_
*611 _0565_
*612 _0566_
*613 _0567_
*614 _0568_
*615 _0569_
*616 _0570_
*617 _0571_
*618 _0572_
*619 _0573_
*620 _0574_
*621 _0575_
*622 _0576_
*623 _0577_
*624 _0578_
*625 _0579_
*626 _0580_
*627 _0581_
*628 _0582_
*629 _0583_
*630 _0584_
*631 _0585_
*632 _0586_
*633 _0587_
*634 _0588_
*635 _0589_
*636 _0590_
*637 _0591_
*638 _0592_
*639 _0593_
*640 _0594_
*641 _0595_
*642 _0596_
*643 _0597_
*644 _0598_
*645 _0599_
*646 _0600_
*647 _0601_
*648 _0602_
*649 _0603_
*650 _0604_
*651 _0605_
*652 _0606_
*653 _0607_
*654 _0608_
*655 _0609_
*656 _0610_
*657 _0611_
*658 _0612_
*659 _0613_
*660 _0614_
*661 _0615_
*662 _0616_
*663 _0617_
*664 _0618_
*665 _0619_
*666 _0620_
*667 _0621_
*668 _0622_
*669 _0623_
*670 _0624_
*671 _0625_
*672 _0626_
*673 _0627_
*674 _0628_
*675 _0629_
*676 _0630_
*677 _0631_
*678 _0632_
*679 _0633_
*680 _0634_
*681 _0635_
*682 _0636_
*683 _0637_
*684 _0638_
*685 _0639_
*686 _0640_
*687 _0641_
*688 _0642_
*689 _0643_
*690 _0644_
*691 _0645_
*692 _0646_
*693 _0647_
*694 _0648_
*695 _0649_
*696 _0650_
*697 _0651_
*698 _0652_
*699 _0653_
*700 _0654_
*701 _0655_
*702 _0656_
*703 _0657_
*704 _0658_
*705 _0659_
*706 _0660_
*707 _0661_
*708 _0662_
*709 _0663_
*710 _0664_
*711 _0665_
*712 _0666_
*713 _0667_
*714 _0668_
*715 _0669_
*716 _0670_
*717 _0671_
*718 _0672_
*719 _0673_
*720 _0674_
*721 _0675_
*722 _0676_
*723 _0677_
*724 _0678_
*725 _0679_
*726 _0680_
*727 _0681_
*728 _0682_
*729 _0683_
*730 _0684_
*731 _0685_
*732 _0686_
*733 _0687_
*734 _0688_
*735 _0689_
*736 _0690_
*737 _0691_
*738 _0692_
*739 _0693_
*740 _0694_
*741 _0695_
*742 _0696_
*743 _0697_
*744 _0698_
*745 _0699_
*746 _0700_
*747 _0701_
*748 _0702_
*749 _0703_
*750 _0704_
*751 _0705_
*752 _0706_
*753 _0707_
*754 clknet_0_clk
*755 clknet_1_0__leaf_clk
*756 clknet_1_1__leaf_clk
*757 clknet_leaf_0_clk
*758 clknet_leaf_10_clk
*759 clknet_leaf_11_clk
*760 clknet_leaf_1_clk
*761 clknet_leaf_2_clk
*762 clknet_leaf_3_clk
*763 clknet_leaf_4_clk
*764 clknet_leaf_5_clk
*765 clknet_leaf_6_clk
*766 clknet_leaf_7_clk
*767 clknet_leaf_8_clk
*768 clknet_leaf_9_clk
*769 hi_idx\[0\]
*770 hi_idx\[1\]
*771 hi_idx\[2\]
*772 hi_idx\[3\]
*773 hi_out\[0\]
*774 hi_out\[1\]
*775 hi_out\[2\]
*776 hi_out\[3\]
*777 hi_out\[4\]
*778 hi_out\[5\]
*779 hi_out\[6\]
*780 net1
*781 net10
*782 net100
*783 net101
*784 net102
*785 net103
*786 net104
*787 net105
*788 net106
*789 net107
*790 net108
*791 net109
*792 net11
*793 net110
*794 net111
*795 net112
*796 net113
*797 net114
*798 net115
*799 net116
*800 net117
*801 net118
*802 net119
*803 net12
*804 net120
*805 net121
*806 net122
*807 net123
*808 net124
*809 net125
*810 net126
*811 net127
*812 net128
*813 net129
*814 net13
*815 net130
*816 net131
*817 net132
*818 net133
*819 net134
*820 net135
*821 net136
*822 net137
*823 net138
*824 net139
*825 net140
*826 net141
*827 net142
*828 net143
*829 net144
*830 net145
*831 net146
*832 net147
*833 net148
*834 net149
*835 net150
*836 net151
*837 net152
*838 net153
*839 net154
*840 net155
*841 net156
*842 net157
*843 net158
*844 net159
*845 net160
*846 net161
*847 net162
*848 net163
*849 net164
*850 net165
*851 net166
*852 net167
*853 net168
*854 net169
*855 net170
*856 net171
*857 net172
*858 net173
*859 net174
*860 net175
*861 net176
*862 net177
*863 net178
*864 net179
*865 net180
*866 net181
*867 net182
*868 net183
*869 net184
*870 net185
*871 net186
*872 net187
*873 net188
*874 net189
*875 net190
*876 net191
*877 net192
*878 net193
*879 net194
*880 net195
*881 net196
*882 net197
*883 net198
*884 net199
*885 net2
*886 net200
*887 net201
*888 net202
*889 net203
*890 net204
*891 net205
*892 net206
*893 net207
*894 net208
*895 net209
*896 net210
*897 net211
*898 net212
*899 net213
*900 net214
*901 net215
*902 net216
*903 net217
*904 net218
*905 net219
*906 net220
*907 net221
*908 net222
*909 net223
*910 net224
*911 net225
*912 net226
*913 net227
*914 net228
*915 net229
*916 net230
*917 net231
*918 net232
*919 net233
*920 net234
*921 net235
*922 net236
*923 net237
*924 net238
*925 net239
*926 net240
*927 net241
*928 net242
*929 net243
*930 net244
*931 net245
*932 net246
*933 net247
*934 net248
*935 net249
*936 net250
*937 net251
*938 net252
*939 net253
*940 net254
*941 net255
*942 net256
*943 net257
*944 net258
*945 net259
*946 net260
*947 net261
*948 net262
*949 net263
*950 net264
*951 net265
*952 net266
*953 net267
*954 net268
*955 net269
*956 net270
*957 net271
*958 net272
*959 net273
*960 net274
*961 net275
*962 net276
*963 net277
*964 net278
*965 net279
*966 net280
*967 net281
*968 net282
*969 net283
*970 net284
*971 net285
*972 net286
*973 net287
*974 net288
*975 net289
*976 net290
*977 net291
*978 net292
*979 net293
*980 net294
*981 net295
*982 net296
*983 net297
*984 net298
*985 net3
*986 net30
*987 net31
*988 net32
*989 net33
*990 net34
*991 net35
*992 net36
*993 net37
*994 net38
*995 net39
*996 net4
*997 net40
*998 net41
*999 net42
*1000 net43
*1001 net44
*1002 net45
*1003 net46
*1004 net47
*1005 net48
*1006 net49
*1007 net5
*1008 net50
*1009 net51
*1010 net52
*1011 net53
*1012 net54
*1013 net55
*1014 net56
*1015 net57
*1016 net58
*1017 net59
*1018 net6
*1019 net60
*1020 net61
*1021 net62
*1022 net63
*1023 net64
*1024 net65
*1025 net66
*1026 net67
*1027 net68
*1028 net69
*1029 net7
*1030 net70
*1031 net71
*1032 net72
*1033 net73
*1034 net74
*1035 net75
*1036 net76
*1037 net77
*1038 net78
*1039 net79
*1040 net8
*1041 net80
*1042 net81
*1043 net82
*1044 net83
*1045 net84
*1046 net85
*1047 net86
*1048 net87
*1049 net88
*1050 net89
*1051 net9
*1052 net90
*1053 net91
*1054 net92
*1055 net93
*1056 net94
*1057 net95
*1058 net96
*1059 net97
*1060 net98
*1061 net99
*1062 sa\.iloop\[0\]\.jloop\[0\]\.sxy\.acc
*1063 sa\.iloop\[0\]\.jloop\[0\]\.sxy\.out1
*1064 sa\.iloop\[0\]\.jloop\[0\]\.sxy\.out2
*1065 sa\.iloop\[0\]\.jloop\[1\]\.sxy\.acc
*1066 sa\.iloop\[0\]\.jloop\[1\]\.sxy\.out1
*1067 sa\.iloop\[0\]\.jloop\[1\]\.sxy\.out2
*1068 sa\.iloop\[0\]\.jloop\[2\]\.sxy\.acc
*1069 sa\.iloop\[0\]\.jloop\[2\]\.sxy\.out1
*1070 sa\.iloop\[0\]\.jloop\[2\]\.sxy\.out2
*1071 sa\.iloop\[0\]\.jloop\[3\]\.sxy\.acc
*1072 sa\.iloop\[0\]\.jloop\[3\]\.sxy\.out1
*1073 sa\.iloop\[0\]\.jloop\[3\]\.sxy\.out2
*1074 sa\.iloop\[0\]\.jloop\[4\]\.sxy\.acc
*1075 sa\.iloop\[0\]\.jloop\[4\]\.sxy\.out1
*1076 sa\.iloop\[0\]\.jloop\[4\]\.sxy\.out2
*1077 sa\.iloop\[0\]\.jloop\[5\]\.sxy\.acc
*1078 sa\.iloop\[0\]\.jloop\[5\]\.sxy\.out1
*1079 sa\.iloop\[0\]\.jloop\[5\]\.sxy\.out2
*1080 sa\.iloop\[0\]\.jloop\[6\]\.sxy\.acc
*1081 sa\.iloop\[0\]\.jloop\[6\]\.sxy\.out1
*1082 sa\.iloop\[0\]\.jloop\[6\]\.sxy\.out2
*1083 sa\.iloop\[0\]\.jloop\[7\]\.sxy\.acc
*1084 sa\.iloop\[0\]\.jloop\[7\]\.sxy\.out1
*1085 sa\.iloop\[1\]\.jloop\[0\]\.sxy\.acc
*1086 sa\.iloop\[1\]\.jloop\[0\]\.sxy\.out1
*1087 sa\.iloop\[1\]\.jloop\[0\]\.sxy\.out2
*1088 sa\.iloop\[1\]\.jloop\[1\]\.sxy\.acc
*1089 sa\.iloop\[1\]\.jloop\[1\]\.sxy\.out1
*1090 sa\.iloop\[1\]\.jloop\[1\]\.sxy\.out2
*1091 sa\.iloop\[1\]\.jloop\[2\]\.sxy\.acc
*1092 sa\.iloop\[1\]\.jloop\[2\]\.sxy\.out1
*1093 sa\.iloop\[1\]\.jloop\[2\]\.sxy\.out2
*1094 sa\.iloop\[1\]\.jloop\[3\]\.sxy\.acc
*1095 sa\.iloop\[1\]\.jloop\[3\]\.sxy\.out1
*1096 sa\.iloop\[1\]\.jloop\[3\]\.sxy\.out2
*1097 sa\.iloop\[1\]\.jloop\[4\]\.sxy\.acc
*1098 sa\.iloop\[1\]\.jloop\[4\]\.sxy\.out1
*1099 sa\.iloop\[1\]\.jloop\[4\]\.sxy\.out2
*1100 sa\.iloop\[1\]\.jloop\[5\]\.sxy\.acc
*1101 sa\.iloop\[1\]\.jloop\[5\]\.sxy\.out1
*1102 sa\.iloop\[1\]\.jloop\[5\]\.sxy\.out2
*1103 sa\.iloop\[1\]\.jloop\[6\]\.sxy\.acc
*1104 sa\.iloop\[1\]\.jloop\[6\]\.sxy\.out1
*1105 sa\.iloop\[1\]\.jloop\[6\]\.sxy\.out2
*1106 sa\.iloop\[1\]\.jloop\[7\]\.sxy\.acc
*1107 sa\.iloop\[1\]\.jloop\[7\]\.sxy\.out1
*1108 sa\.iloop\[2\]\.jloop\[0\]\.sxy\.acc
*1109 sa\.iloop\[2\]\.jloop\[0\]\.sxy\.out1
*1110 sa\.iloop\[2\]\.jloop\[0\]\.sxy\.out2
*1111 sa\.iloop\[2\]\.jloop\[1\]\.sxy\.acc
*1112 sa\.iloop\[2\]\.jloop\[1\]\.sxy\.out1
*1113 sa\.iloop\[2\]\.jloop\[1\]\.sxy\.out2
*1114 sa\.iloop\[2\]\.jloop\[2\]\.sxy\.acc
*1115 sa\.iloop\[2\]\.jloop\[2\]\.sxy\.out1
*1116 sa\.iloop\[2\]\.jloop\[2\]\.sxy\.out2
*1117 sa\.iloop\[2\]\.jloop\[3\]\.sxy\.acc
*1118 sa\.iloop\[2\]\.jloop\[3\]\.sxy\.out1
*1119 sa\.iloop\[2\]\.jloop\[3\]\.sxy\.out2
*1120 sa\.iloop\[2\]\.jloop\[4\]\.sxy\.acc
*1121 sa\.iloop\[2\]\.jloop\[4\]\.sxy\.out1
*1122 sa\.iloop\[2\]\.jloop\[4\]\.sxy\.out2
*1123 sa\.iloop\[2\]\.jloop\[5\]\.sxy\.acc
*1124 sa\.iloop\[2\]\.jloop\[5\]\.sxy\.out1
*1125 sa\.iloop\[2\]\.jloop\[5\]\.sxy\.out2
*1126 sa\.iloop\[2\]\.jloop\[6\]\.sxy\.acc
*1127 sa\.iloop\[2\]\.jloop\[6\]\.sxy\.out1
*1128 sa\.iloop\[2\]\.jloop\[6\]\.sxy\.out2
*1129 sa\.iloop\[2\]\.jloop\[7\]\.sxy\.acc
*1130 sa\.iloop\[2\]\.jloop\[7\]\.sxy\.out1
*1131 sa\.iloop\[3\]\.jloop\[0\]\.sxy\.acc
*1132 sa\.iloop\[3\]\.jloop\[0\]\.sxy\.out1
*1133 sa\.iloop\[3\]\.jloop\[0\]\.sxy\.out2
*1134 sa\.iloop\[3\]\.jloop\[1\]\.sxy\.acc
*1135 sa\.iloop\[3\]\.jloop\[1\]\.sxy\.out1
*1136 sa\.iloop\[3\]\.jloop\[1\]\.sxy\.out2
*1137 sa\.iloop\[3\]\.jloop\[2\]\.sxy\.acc
*1138 sa\.iloop\[3\]\.jloop\[2\]\.sxy\.out1
*1139 sa\.iloop\[3\]\.jloop\[2\]\.sxy\.out2
*1140 sa\.iloop\[3\]\.jloop\[3\]\.sxy\.acc
*1141 sa\.iloop\[3\]\.jloop\[3\]\.sxy\.out1
*1142 sa\.iloop\[3\]\.jloop\[3\]\.sxy\.out2
*1143 sa\.iloop\[3\]\.jloop\[4\]\.sxy\.acc
*1144 sa\.iloop\[3\]\.jloop\[4\]\.sxy\.out1
*1145 sa\.iloop\[3\]\.jloop\[4\]\.sxy\.out2
*1146 sa\.iloop\[3\]\.jloop\[5\]\.sxy\.acc
*1147 sa\.iloop\[3\]\.jloop\[5\]\.sxy\.out1
*1148 sa\.iloop\[3\]\.jloop\[5\]\.sxy\.out2
*1149 sa\.iloop\[3\]\.jloop\[6\]\.sxy\.acc
*1150 sa\.iloop\[3\]\.jloop\[6\]\.sxy\.out1
*1151 sa\.iloop\[3\]\.jloop\[6\]\.sxy\.out2
*1152 sa\.iloop\[3\]\.jloop\[7\]\.sxy\.acc
*1153 sa\.iloop\[3\]\.jloop\[7\]\.sxy\.out1
*1154 sa\.iloop\[4\]\.jloop\[0\]\.sxy\.acc
*1155 sa\.iloop\[4\]\.jloop\[0\]\.sxy\.out1
*1156 sa\.iloop\[4\]\.jloop\[0\]\.sxy\.out2
*1157 sa\.iloop\[4\]\.jloop\[1\]\.sxy\.acc
*1158 sa\.iloop\[4\]\.jloop\[1\]\.sxy\.out1
*1159 sa\.iloop\[4\]\.jloop\[1\]\.sxy\.out2
*1160 sa\.iloop\[4\]\.jloop\[2\]\.sxy\.acc
*1161 sa\.iloop\[4\]\.jloop\[2\]\.sxy\.out1
*1162 sa\.iloop\[4\]\.jloop\[2\]\.sxy\.out2
*1163 sa\.iloop\[4\]\.jloop\[3\]\.sxy\.acc
*1164 sa\.iloop\[4\]\.jloop\[3\]\.sxy\.out1
*1165 sa\.iloop\[4\]\.jloop\[3\]\.sxy\.out2
*1166 sa\.iloop\[4\]\.jloop\[4\]\.sxy\.acc
*1167 sa\.iloop\[4\]\.jloop\[4\]\.sxy\.out1
*1168 sa\.iloop\[4\]\.jloop\[4\]\.sxy\.out2
*1169 sa\.iloop\[4\]\.jloop\[5\]\.sxy\.acc
*1170 sa\.iloop\[4\]\.jloop\[5\]\.sxy\.out1
*1171 sa\.iloop\[4\]\.jloop\[5\]\.sxy\.out2
*1172 sa\.iloop\[4\]\.jloop\[6\]\.sxy\.acc
*1173 sa\.iloop\[4\]\.jloop\[6\]\.sxy\.out1
*1174 sa\.iloop\[4\]\.jloop\[6\]\.sxy\.out2
*1175 sa\.iloop\[4\]\.jloop\[7\]\.sxy\.acc
*1176 sa\.iloop\[4\]\.jloop\[7\]\.sxy\.out1
*1177 sa\.iloop\[5\]\.jloop\[0\]\.sxy\.acc
*1178 sa\.iloop\[5\]\.jloop\[0\]\.sxy\.out1
*1179 sa\.iloop\[5\]\.jloop\[0\]\.sxy\.out2
*1180 sa\.iloop\[5\]\.jloop\[1\]\.sxy\.acc
*1181 sa\.iloop\[5\]\.jloop\[1\]\.sxy\.out1
*1182 sa\.iloop\[5\]\.jloop\[1\]\.sxy\.out2
*1183 sa\.iloop\[5\]\.jloop\[2\]\.sxy\.acc
*1184 sa\.iloop\[5\]\.jloop\[2\]\.sxy\.out1
*1185 sa\.iloop\[5\]\.jloop\[2\]\.sxy\.out2
*1186 sa\.iloop\[5\]\.jloop\[3\]\.sxy\.acc
*1187 sa\.iloop\[5\]\.jloop\[3\]\.sxy\.out1
*1188 sa\.iloop\[5\]\.jloop\[3\]\.sxy\.out2
*1189 sa\.iloop\[5\]\.jloop\[4\]\.sxy\.acc
*1190 sa\.iloop\[5\]\.jloop\[4\]\.sxy\.out1
*1191 sa\.iloop\[5\]\.jloop\[4\]\.sxy\.out2
*1192 sa\.iloop\[5\]\.jloop\[5\]\.sxy\.acc
*1193 sa\.iloop\[5\]\.jloop\[5\]\.sxy\.out1
*1194 sa\.iloop\[5\]\.jloop\[5\]\.sxy\.out2
*1195 sa\.iloop\[5\]\.jloop\[6\]\.sxy\.acc
*1196 sa\.iloop\[5\]\.jloop\[6\]\.sxy\.out1
*1197 sa\.iloop\[5\]\.jloop\[6\]\.sxy\.out2
*1198 sa\.iloop\[5\]\.jloop\[7\]\.sxy\.acc
*1199 sa\.iloop\[5\]\.jloop\[7\]\.sxy\.out1
*1200 sa\.iloop\[6\]\.jloop\[0\]\.sxy\.acc
*1201 sa\.iloop\[6\]\.jloop\[0\]\.sxy\.out1
*1202 sa\.iloop\[6\]\.jloop\[0\]\.sxy\.out2
*1203 sa\.iloop\[6\]\.jloop\[1\]\.sxy\.acc
*1204 sa\.iloop\[6\]\.jloop\[1\]\.sxy\.out1
*1205 sa\.iloop\[6\]\.jloop\[1\]\.sxy\.out2
*1206 sa\.iloop\[6\]\.jloop\[2\]\.sxy\.acc
*1207 sa\.iloop\[6\]\.jloop\[2\]\.sxy\.out1
*1208 sa\.iloop\[6\]\.jloop\[2\]\.sxy\.out2
*1209 sa\.iloop\[6\]\.jloop\[3\]\.sxy\.acc
*1210 sa\.iloop\[6\]\.jloop\[3\]\.sxy\.out1
*1211 sa\.iloop\[6\]\.jloop\[3\]\.sxy\.out2
*1212 sa\.iloop\[6\]\.jloop\[4\]\.sxy\.acc
*1213 sa\.iloop\[6\]\.jloop\[4\]\.sxy\.out1
*1214 sa\.iloop\[6\]\.jloop\[4\]\.sxy\.out2
*1215 sa\.iloop\[6\]\.jloop\[5\]\.sxy\.acc
*1216 sa\.iloop\[6\]\.jloop\[5\]\.sxy\.out1
*1217 sa\.iloop\[6\]\.jloop\[5\]\.sxy\.out2
*1218 sa\.iloop\[6\]\.jloop\[6\]\.sxy\.acc
*1219 sa\.iloop\[6\]\.jloop\[6\]\.sxy\.out1
*1220 sa\.iloop\[6\]\.jloop\[6\]\.sxy\.out2
*1221 sa\.iloop\[6\]\.jloop\[7\]\.sxy\.acc
*1222 sa\.iloop\[6\]\.jloop\[7\]\.sxy\.out1
*1223 sa\.iloop\[7\]\.jloop\[0\]\.sxy\.acc
*1224 sa\.iloop\[7\]\.jloop\[0\]\.sxy\.out1
*1225 sa\.iloop\[7\]\.jloop\[0\]\.sxy\.out2
*1226 sa\.iloop\[7\]\.jloop\[1\]\.sxy\.acc
*1227 sa\.iloop\[7\]\.jloop\[1\]\.sxy\.out1
*1228 sa\.iloop\[7\]\.jloop\[1\]\.sxy\.out2
*1229 sa\.iloop\[7\]\.jloop\[2\]\.sxy\.acc
*1230 sa\.iloop\[7\]\.jloop\[2\]\.sxy\.out1
*1231 sa\.iloop\[7\]\.jloop\[2\]\.sxy\.out2
*1232 sa\.iloop\[7\]\.jloop\[3\]\.sxy\.acc
*1233 sa\.iloop\[7\]\.jloop\[3\]\.sxy\.out1
*1234 sa\.iloop\[7\]\.jloop\[3\]\.sxy\.out2
*1235 sa\.iloop\[7\]\.jloop\[4\]\.sxy\.acc
*1236 sa\.iloop\[7\]\.jloop\[4\]\.sxy\.out1
*1237 sa\.iloop\[7\]\.jloop\[4\]\.sxy\.out2
*1238 sa\.iloop\[7\]\.jloop\[5\]\.sxy\.acc
*1239 sa\.iloop\[7\]\.jloop\[5\]\.sxy\.out1
*1240 sa\.iloop\[7\]\.jloop\[5\]\.sxy\.out2
*1241 sa\.iloop\[7\]\.jloop\[6\]\.sxy\.acc
*1242 sa\.iloop\[7\]\.jloop\[6\]\.sxy\.out1
*1243 sa\.iloop\[7\]\.jloop\[6\]\.sxy\.out2
*1244 sa\.iloop\[7\]\.jloop\[7\]\.sxy\.acc
*1245 sa\.iloop\[7\]\.jloop\[7\]\.sxy\.out1
*1246 sys_in1_buffer\[0\]
*1247 sys_in1_buffer\[1\]
*1248 sys_in1_buffer\[2\]
*1249 sys_in1_buffer\[3\]
*1250 sys_in1_buffer\[4\]
*1251 sys_in1_buffer\[5\]
*1252 sys_in1_buffer\[6\]
*1253 sys_in1_buffer\[7\]
*1254 sys_in1_next
*1255 ANTENNA_1
*1256 ANTENNA_2
*1257 ANTENNA_3
*1258 ANTENNA_4
*1259 FILLER_0_0_109
*1260 FILLER_0_0_113
*1261 FILLER_0_0_125
*1262 FILLER_0_0_137
*1263 FILLER_0_0_141
*1264 FILLER_0_0_15
*1265 FILLER_0_0_153
*1266 FILLER_0_0_165
*1267 FILLER_0_0_169
*1268 FILLER_0_0_181
*1269 FILLER_0_0_193
*1270 FILLER_0_0_197
*1271 FILLER_0_0_209
*1272 FILLER_0_0_221
*1273 FILLER_0_0_225
*1274 FILLER_0_0_237
*1275 FILLER_0_0_249
*1276 FILLER_0_0_253
*1277 FILLER_0_0_265
*1278 FILLER_0_0_27
*1279 FILLER_0_0_277
*1280 FILLER_0_0_281
*1281 FILLER_0_0_29
*1282 FILLER_0_0_293
*1283 FILLER_0_0_3
*1284 FILLER_0_0_305
*1285 FILLER_0_0_309
*1286 FILLER_0_0_321
*1287 FILLER_0_0_333
*1288 FILLER_0_0_337
*1289 FILLER_0_0_349
*1290 FILLER_0_0_41
*1291 FILLER_0_0_53
*1292 FILLER_0_0_57
*1293 FILLER_0_0_69
*1294 FILLER_0_0_81
*1295 FILLER_0_0_85
*1296 FILLER_0_0_97
*1297 FILLER_0_10_105
*1298 FILLER_0_10_127
*1299 FILLER_0_10_141
*1300 FILLER_0_10_166
*1301 FILLER_0_10_182
*1302 FILLER_0_10_194
*1303 FILLER_0_10_197
*1304 FILLER_0_10_214
*1305 FILLER_0_10_227
*1306 FILLER_0_10_235
*1307 FILLER_0_10_27
*1308 FILLER_0_10_285
*1309 FILLER_0_10_3
*1310 FILLER_0_10_309
*1311 FILLER_0_10_40
*1312 FILLER_0_10_48
*1313 FILLER_0_10_64
*1314 FILLER_0_10_72
*1315 FILLER_0_10_83
*1316 FILLER_0_10_90
*1317 FILLER_0_11_101
*1318 FILLER_0_11_109
*1319 FILLER_0_11_149
*1320 FILLER_0_11_15
*1321 FILLER_0_11_177
*1322 FILLER_0_11_195
*1323 FILLER_0_11_206
*1324 FILLER_0_11_221
*1325 FILLER_0_11_249
*1326 FILLER_0_11_258
*1327 FILLER_0_11_262
*1328 FILLER_0_11_279
*1329 FILLER_0_11_281
*1330 FILLER_0_11_3
*1331 FILLER_0_11_337
*1332 FILLER_0_11_37
*1333 FILLER_0_11_45
*1334 FILLER_0_11_55
*1335 FILLER_0_11_57
*1336 FILLER_0_11_67
*1337 FILLER_0_11_73
*1338 FILLER_0_11_81
*1339 FILLER_0_12_112
*1340 FILLER_0_12_119
*1341 FILLER_0_12_13
*1342 FILLER_0_12_131
*1343 FILLER_0_12_145
*1344 FILLER_0_12_153
*1345 FILLER_0_12_175
*1346 FILLER_0_12_179
*1347 FILLER_0_12_23
*1348 FILLER_0_12_251
*1349 FILLER_0_12_269
*1350 FILLER_0_12_27
*1351 FILLER_0_12_277
*1352 FILLER_0_12_287
*1353 FILLER_0_12_29
*1354 FILLER_0_12_3
*1355 FILLER_0_12_336
*1356 FILLER_0_12_346
*1357 FILLER_0_12_350
*1358 FILLER_0_12_47
*1359 FILLER_0_12_58
*1360 FILLER_0_12_66
*1361 FILLER_0_12_83
*1362 FILLER_0_12_85
*1363 FILLER_0_12_97
*1364 FILLER_0_13_113
*1365 FILLER_0_13_13
*1366 FILLER_0_13_140
*1367 FILLER_0_13_157
*1368 FILLER_0_13_225
*1369 FILLER_0_13_236
*1370 FILLER_0_13_260
*1371 FILLER_0_13_281
*1372 FILLER_0_13_289
*1373 FILLER_0_13_3
*1374 FILLER_0_13_31
*1375 FILLER_0_13_319
*1376 FILLER_0_13_340
*1377 FILLER_0_13_344
*1378 FILLER_0_13_348
*1379 FILLER_0_13_45
*1380 FILLER_0_13_57
*1381 FILLER_0_13_69
*1382 FILLER_0_13_77
*1383 FILLER_0_14_100
*1384 FILLER_0_14_128
*1385 FILLER_0_14_137
*1386 FILLER_0_14_141
*1387 FILLER_0_14_159
*1388 FILLER_0_14_16
*1389 FILLER_0_14_179
*1390 FILLER_0_14_205
*1391 FILLER_0_14_219
*1392 FILLER_0_14_250
*1393 FILLER_0_14_253
*1394 FILLER_0_14_270
*1395 FILLER_0_14_278
*1396 FILLER_0_14_3
*1397 FILLER_0_14_304
*1398 FILLER_0_14_309
*1399 FILLER_0_14_318
*1400 FILLER_0_14_58
*1401 FILLER_0_14_7
*1402 FILLER_0_14_75
*1403 FILLER_0_15_111
*1404 FILLER_0_15_131
*1405 FILLER_0_15_165
*1406 FILLER_0_15_185
*1407 FILLER_0_15_22
*1408 FILLER_0_15_222
*1409 FILLER_0_15_241
*1410 FILLER_0_15_266
*1411 FILLER_0_15_275
*1412 FILLER_0_15_279
*1413 FILLER_0_15_287
*1414 FILLER_0_15_299
*1415 FILLER_0_15_3
*1416 FILLER_0_15_333
*1417 FILLER_0_15_345
*1418 FILLER_0_15_47
*1419 FILLER_0_15_57
*1420 FILLER_0_15_72
*1421 FILLER_0_15_88
*1422 FILLER_0_16_125
*1423 FILLER_0_16_14
*1424 FILLER_0_16_141
*1425 FILLER_0_16_175
*1426 FILLER_0_16_183
*1427 FILLER_0_16_211
*1428 FILLER_0_16_25
*1429 FILLER_0_16_267
*1430 FILLER_0_16_277
*1431 FILLER_0_16_3
*1432 FILLER_0_16_306
*1433 FILLER_0_16_309
*1434 FILLER_0_16_326
*1435 FILLER_0_16_74
*1436 FILLER_0_16_93
*1437 FILLER_0_17_102
*1438 FILLER_0_17_121
*1439 FILLER_0_17_169
*1440 FILLER_0_17_188
*1441 FILLER_0_17_19
*1442 FILLER_0_17_203
*1443 FILLER_0_17_260
*1444 FILLER_0_17_281
*1445 FILLER_0_17_289
*1446 FILLER_0_17_314
*1447 FILLER_0_17_345
*1448 FILLER_0_17_42
*1449 FILLER_0_17_48
*1450 FILLER_0_17_54
*1451 FILLER_0_17_72
*1452 FILLER_0_18_13
*1453 FILLER_0_18_132
*1454 FILLER_0_18_160
*1455 FILLER_0_18_167
*1456 FILLER_0_18_174
*1457 FILLER_0_18_195
*1458 FILLER_0_18_200
*1459 FILLER_0_18_226
*1460 FILLER_0_18_230
*1461 FILLER_0_18_246
*1462 FILLER_0_18_27
*1463 FILLER_0_18_282
*1464 FILLER_0_18_286
*1465 FILLER_0_18_3
*1466 FILLER_0_18_301
*1467 FILLER_0_18_307
*1468 FILLER_0_18_80
*1469 FILLER_0_18_85
*1470 FILLER_0_18_94
*1471 FILLER_0_19_108
*1472 FILLER_0_19_167
*1473 FILLER_0_19_175
*1474 FILLER_0_19_19
*1475 FILLER_0_19_221
*1476 FILLER_0_19_225
*1477 FILLER_0_19_243
*1478 FILLER_0_19_247
*1479 FILLER_0_19_275
*1480 FILLER_0_19_279
*1481 FILLER_0_19_327
*1482 FILLER_0_19_345
*1483 FILLER_0_19_57
*1484 FILLER_0_19_78
*1485 FILLER_0_1_105
*1486 FILLER_0_1_111
*1487 FILLER_0_1_113
*1488 FILLER_0_1_125
*1489 FILLER_0_1_137
*1490 FILLER_0_1_149
*1491 FILLER_0_1_15
*1492 FILLER_0_1_161
*1493 FILLER_0_1_167
*1494 FILLER_0_1_169
*1495 FILLER_0_1_181
*1496 FILLER_0_1_193
*1497 FILLER_0_1_205
*1498 FILLER_0_1_217
*1499 FILLER_0_1_223
*1500 FILLER_0_1_225
*1501 FILLER_0_1_237
*1502 FILLER_0_1_249
*1503 FILLER_0_1_261
*1504 FILLER_0_1_27
*1505 FILLER_0_1_273
*1506 FILLER_0_1_279
*1507 FILLER_0_1_281
*1508 FILLER_0_1_293
*1509 FILLER_0_1_3
*1510 FILLER_0_1_305
*1511 FILLER_0_1_317
*1512 FILLER_0_1_329
*1513 FILLER_0_1_335
*1514 FILLER_0_1_337
*1515 FILLER_0_1_349
*1516 FILLER_0_1_39
*1517 FILLER_0_1_51
*1518 FILLER_0_1_55
*1519 FILLER_0_1_57
*1520 FILLER_0_1_69
*1521 FILLER_0_1_81
*1522 FILLER_0_1_93
*1523 FILLER_0_20_15
*1524 FILLER_0_20_159
*1525 FILLER_0_20_176
*1526 FILLER_0_20_192
*1527 FILLER_0_20_205
*1528 FILLER_0_20_256
*1529 FILLER_0_20_287
*1530 FILLER_0_20_29
*1531 FILLER_0_20_3
*1532 FILLER_0_20_309
*1533 FILLER_0_20_319
*1534 FILLER_0_20_344
*1535 FILLER_0_20_350
*1536 FILLER_0_20_39
*1537 FILLER_0_20_43
*1538 FILLER_0_20_57
*1539 FILLER_0_20_67
*1540 FILLER_0_20_79
*1541 FILLER_0_20_83
*1542 FILLER_0_20_92
*1543 FILLER_0_21_113
*1544 FILLER_0_21_117
*1545 FILLER_0_21_144
*1546 FILLER_0_21_169
*1547 FILLER_0_21_193
*1548 FILLER_0_21_20
*1549 FILLER_0_21_210
*1550 FILLER_0_21_222
*1551 FILLER_0_21_239
*1552 FILLER_0_21_250
*1553 FILLER_0_21_270
*1554 FILLER_0_21_3
*1555 FILLER_0_21_308
*1556 FILLER_0_21_327
*1557 FILLER_0_21_345
*1558 FILLER_0_21_48
*1559 FILLER_0_21_57
*1560 FILLER_0_21_61
*1561 FILLER_0_21_78
*1562 FILLER_0_21_84
*1563 FILLER_0_21_93
*1564 FILLER_0_22_11
*1565 FILLER_0_22_134
*1566 FILLER_0_22_167
*1567 FILLER_0_22_189
*1568 FILLER_0_22_197
*1569 FILLER_0_22_221
*1570 FILLER_0_22_231
*1571 FILLER_0_22_24
*1572 FILLER_0_22_260
*1573 FILLER_0_22_277
*1574 FILLER_0_22_3
*1575 FILLER_0_22_324
*1576 FILLER_0_22_334
*1577 FILLER_0_22_48
*1578 FILLER_0_22_56
*1579 FILLER_0_22_60
*1580 FILLER_0_22_81
*1581 FILLER_0_22_85
*1582 FILLER_0_22_94
*1583 FILLER_0_23_109
*1584 FILLER_0_23_120
*1585 FILLER_0_23_126
*1586 FILLER_0_23_137
*1587 FILLER_0_23_155
*1588 FILLER_0_23_159
*1589 FILLER_0_23_200
*1590 FILLER_0_23_211
*1591 FILLER_0_23_22
*1592 FILLER_0_23_223
*1593 FILLER_0_23_252
*1594 FILLER_0_23_276
*1595 FILLER_0_23_289
*1596 FILLER_0_23_3
*1597 FILLER_0_23_315
*1598 FILLER_0_23_319
*1599 FILLER_0_23_39
*1600 FILLER_0_23_73
*1601 FILLER_0_23_88
*1602 FILLER_0_23_97
*1603 FILLER_0_24_111
*1604 FILLER_0_24_119
*1605 FILLER_0_24_135
*1606 FILLER_0_24_139
*1607 FILLER_0_24_141
*1608 FILLER_0_24_16
*1609 FILLER_0_24_175
*1610 FILLER_0_24_192
*1611 FILLER_0_24_197
*1612 FILLER_0_24_205
*1613 FILLER_0_24_218
*1614 FILLER_0_24_230
*1615 FILLER_0_24_238
*1616 FILLER_0_24_244
*1617 FILLER_0_24_271
*1618 FILLER_0_24_295
*1619 FILLER_0_24_299
*1620 FILLER_0_24_3
*1621 FILLER_0_24_7
*1622 FILLER_0_24_72
*1623 FILLER_0_24_81
*1624 FILLER_0_24_85
*1625 FILLER_0_25_107
*1626 FILLER_0_25_111
*1627 FILLER_0_25_113
*1628 FILLER_0_25_139
*1629 FILLER_0_25_146
*1630 FILLER_0_25_161
*1631 FILLER_0_25_19
*1632 FILLER_0_25_191
*1633 FILLER_0_25_195
*1634 FILLER_0_25_225
*1635 FILLER_0_25_242
*1636 FILLER_0_25_262
*1637 FILLER_0_25_288
*1638 FILLER_0_25_311
*1639 FILLER_0_25_337
*1640 FILLER_0_25_341
*1641 FILLER_0_25_345
*1642 FILLER_0_25_37
*1643 FILLER_0_25_41
*1644 FILLER_0_25_55
*1645 FILLER_0_25_70
*1646 FILLER_0_25_87
*1647 FILLER_0_25_95
*1648 FILLER_0_26_110
*1649 FILLER_0_26_125
*1650 FILLER_0_26_13
*1651 FILLER_0_26_134
*1652 FILLER_0_26_141
*1653 FILLER_0_26_195
*1654 FILLER_0_26_197
*1655 FILLER_0_26_210