*SPEF "ieee 1481-1999"
*DESIGN "tt_um_LSNN"
*DATE "11:11:11 Fri 11 11, 1111"
*VENDOR "OpenRCX"
*PROGRAM "Parallel Extraction"
*VERSION "1.0"
*DESIGN_FLOW "NAME_SCOPE LOCAL" "PIN_CAP NONE"
*DIVIDER /
*DELIMITER :
*BUS_DELIMITER []
*T_UNIT 1 NS
*C_UNIT 1 PF
*R_UNIT 1 OHM
*L_UNIT 1 HENRY

*NAME_MAP
*3 clk
*4 ena
*5 rst_n
*6 ui_in[0]
*7 ui_in[1]
*8 ui_in[2]
*9 ui_in[3]
*10 ui_in[4]
*11 ui_in[5]
*12 ui_in[6]
*13 ui_in[7]
*14 uio_in[0]
*15 uio_in[1]
*16 uio_in[2]
*17 uio_in[3]
*18 uio_in[4]
*19 uio_in[5]
*20 uio_in[6]
*21 uio_in[7]
*22 net10
*23 net11
*24 net12
*25 net13
*26 net14
*27 net15
*28 net16
*29 net17
*30 uio_out[0]
*31 uio_out[1]
*32 uio_out[2]
*33 uio_out[3]
*34 uio_out[4]
*35 uio_out[5]
*36 uio_out[6]
*37 uio_out[7]
*38 uo_out[0]
*39 net18
*40 net19
*41 net20
*42 net21
*43 net22
*44 net23
*45 net24
*46 _000_
*47 _001_
*48 _002_
*49 _003_
*50 _004_
*51 _005_
*52 _006_
*53 _007_
*54 _008_
*55 _009_
*56 _010_
*57 _011_
*58 _012_
*59 _013_
*60 _014_
*61 _015_
*62 _016_
*63 _017_
*64 _018_
*65 _019_
*66 _020_
*67 _021_
*68 _022_
*69 _023_
*70 _024_
*71 _025_
*72 _026_
*73 _027_
*74 _028_
*75 _029_
*76 _030_
*77 _031_
*78 _032_
*79 _033_
*80 _034_
*81 _035_
*82 _036_
*83 _037_
*84 _038_
*85 _039_
*86 _040_
*87 _041_
*88 _042_
*89 _043_
*90 _044_
*91 _045_
*92 _046_
*93 _047_
*94 _048_
*95 _049_
*96 _050_
*97 _051_
*98 _052_
*99 _053_
*100 _054_
*101 _055_
*102 _056_
*103 _057_
*104 _058_
*105 _059_
*106 _060_
*107 _061_
*108 _062_
*109 _063_
*110 _064_
*111 _065_
*112 _066_
*113 _067_
*114 _068_
*115 _069_
*116 _070_
*117 _071_
*118 _072_
*119 _073_
*120 _074_
*121 _075_
*122 _076_
*123 _077_
*124 _078_
*125 _079_
*126 _080_
*127 _081_
*128 _082_
*129 _083_
*130 _084_
*131 _085_
*132 _086_
*133 _087_
*134 _088_
*135 _089_
*136 _090_
*137 _091_
*138 _092_
*139 _093_
*140 _094_
*141 _095_
*142 _096_
*143 _097_
*144 _098_
*145 _099_
*146 _100_
*147 _101_
*148 _102_
*149 _103_
*150 _104_
*151 _105_
*152 _106_
*153 _107_
*154 _108_
*155 _109_
*156 _110_
*157 _111_
*158 _112_
*159 _113_
*160 _114_
*161 _115_
*162 _116_
*163 _117_
*164 _118_
*165 _119_
*166 _120_
*167 _121_
*168 _122_
*169 _123_
*170 _124_
*171 _125_
*172 _126_
*173 _127_
*174 _128_
*175 _129_
*176 _130_
*177 _131_
*178 _132_
*179 _133_
*180 _134_
*181 _135_
*182 _136_
*183 _137_
*184 _138_
*185 _139_
*186 _140_
*187 _141_
*188 _142_
*189 _143_
*190 _144_
*191 _145_
*192 _146_
*193 _147_
*194 _148_
*195 _149_
*196 _150_
*197 _151_
*198 _152_
*199 _153_
*200 _154_
*201 adaptation\[0\]
*202 adaptation\[1\]
*203 adaptation\[2\]
*204 adaptation\[3\]
*205 adaptation\[4\]
*206 adaptation\[5\]
*207 adaptation\[6\]
*208 adaptation\[7\]
*209 clknet_0_clk
*210 clknet_2_0__leaf_clk
*211 clknet_2_1__leaf_clk
*212 clknet_2_2__leaf_clk
*213 clknet_2_3__leaf_clk
*214 net1
*215 net2
*216 net25
*217 net26
*218 net27
*219 net28
*220 net29
*221 net3
*222 net30
*223 net31
*224 net32
*225 net33
*226 net4
*227 net5
*228 net6
*229 net7
*230 net8
*231 net9
*232 next_state\[0\]
*233 next_state\[1\]
*234 next_state\[2\]
*235 next_state\[3\]
*236 next_state\[4\]
*237 next_state\[5\]
*238 next_state\[6\]
*239 next_state\[7\]
*240 state\[0\]
*241 state\[1\]
*242 state\[2\]
*243 state\[3\]
*244 state\[4\]
*245 state\[5\]
*246 state\[6\]
*247 state\[7\]
*248 FILLER_0_0_109
*249 FILLER_0_0_113
*250 FILLER_0_0_125
*251 FILLER_0_0_137
*252 FILLER_0_0_141
*253 FILLER_0_0_15
*254 FILLER_0_0_153
*255 FILLER_0_0_165
*256 FILLER_0_0_169
*257 FILLER_0_0_181
*258 FILLER_0_0_193
*259 FILLER_0_0_197
*260 FILLER_0_0_209
*261 FILLER_0_0_221
*262 FILLER_0_0_225
*263 FILLER_0_0_237
*264 FILLER_0_0_249
*265 FILLER_0_0_253
*266 FILLER_0_0_265
*267 FILLER_0_0_27
*268 FILLER_0_0_277
*269 FILLER_0_0_281
*270 FILLER_0_0_29
*271 FILLER_0_0_293
*272 FILLER_0_0_3
*273 FILLER_0_0_305
*274 FILLER_0_0_309
*275 FILLER_0_0_321
*276 FILLER_0_0_333
*277 FILLER_0_0_337
*278 FILLER_0_0_349
*279 FILLER_0_0_41
*280 FILLER_0_0_53
*281 FILLER_0_0_57
*282 FILLER_0_0_69
*283 FILLER_0_0_81
*284 FILLER_0_0_85
*285 FILLER_0_0_97
*286 FILLER_0_10_109
*287 FILLER_0_10_121
*288 FILLER_0_10_133
*289 FILLER_0_10_139
*290 FILLER_0_10_141
*291 FILLER_0_10_15
*292 FILLER_0_10_153
*293 FILLER_0_10_165
*294 FILLER_0_10_177
*295 FILLER_0_10_189
*296 FILLER_0_10_195
*297 FILLER_0_10_197
*298 FILLER_0_10_209
*299 FILLER_0_10_221
*300 FILLER_0_10_233
*301 FILLER_0_10_245
*302 FILLER_0_10_251
*303 FILLER_0_10_253
*304 FILLER_0_10_265
*305 FILLER_0_10_27
*306 FILLER_0_10_277
*307 FILLER_0_10_289
*308 FILLER_0_10_29
*309 FILLER_0_10_3
*310 FILLER_0_10_301
*311 FILLER_0_10_307
*312 FILLER_0_10_309
*313 FILLER_0_10_321
*314 FILLER_0_10_333
*315 FILLER_0_10_345
*316 FILLER_0_10_41
*317 FILLER_0_10_53
*318 FILLER_0_10_65
*319 FILLER_0_10_77
*320 FILLER_0_10_83
*321 FILLER_0_10_85
*322 FILLER_0_10_97
*323 FILLER_0_11_105
*324 FILLER_0_11_111
*325 FILLER_0_11_113
*326 FILLER_0_11_125
*327 FILLER_0_11_137
*328 FILLER_0_11_149
*329 FILLER_0_11_15
*330 FILLER_0_11_161
*331 FILLER_0_11_167
*332 FILLER_0_11_169
*333 FILLER_0_11_181
*334 FILLER_0_11_193
*335 FILLER_0_11_205
*336 FILLER_0_11_217
*337 FILLER_0_11_223
*338 FILLER_0_11_225
*339 FILLER_0_11_237
*340 FILLER_0_11_249
*341 FILLER_0_11_261
*342 FILLER_0_11_27
*343 FILLER_0_11_273
*344 FILLER_0_11_279
*345 FILLER_0_11_281
*346 FILLER_0_11_293
*347 FILLER_0_11_3
*348 FILLER_0_11_305
*349 FILLER_0_11_317
*350 FILLER_0_11_329
*351 FILLER_0_11_335
*352 FILLER_0_11_337
*353 FILLER_0_11_349
*354 FILLER_0_11_39
*355 FILLER_0_11_51
*356 FILLER_0_11_55
*357 FILLER_0_11_57
*358 FILLER_0_11_69
*359 FILLER_0_11_81
*360 FILLER_0_11_93
*361 FILLER_0_12_109
*362 FILLER_0_12_121
*363 FILLER_0_12_133
*364 FILLER_0_12_139
*365 FILLER_0_12_141
*366 FILLER_0_12_15
*367 FILLER_0_12_153
*368 FILLER_0_12_165
*369 FILLER_0_12_177
*370 FILLER_0_12_189
*371 FILLER_0_12_195
*372 FILLER_0_12_197
*373 FILLER_0_12_209
*374 FILLER_0_12_221
*375 FILLER_0_12_233
*376 FILLER_0_12_245
*377 FILLER_0_12_251
*378 FILLER_0_12_253
*379 FILLER_0_12_265
*380 FILLER_0_12_27
*381 FILLER_0_12_277
*382 FILLER_0_12_289
*383 FILLER_0_12_29
*384 FILLER_0_12_3
*385 FILLER_0_12_301
*386 FILLER_0_12_307
*387 FILLER_0_12_309
*388 FILLER_0_12_321
*389 FILLER_0_12_333
*390 FILLER_0_12_345
*391 FILLER_0_12_41
*392 FILLER_0_12_53
*393 FILLER_0_12_65
*394 FILLER_0_12_77
*395 FILLER_0_12_83
*396 FILLER_0_12_85
*397 FILLER_0_12_97
*398 FILLER_0_13_105
*399 FILLER_0_13_111
*400 FILLER_0_13_113
*401 FILLER_0_13_125
*402 FILLER_0_13_137
*403 FILLER_0_13_149
*404 FILLER_0_13_15
*405 FILLER_0_13_161
*406 FILLER_0_13_167
*407 FILLER_0_13_169
*408 FILLER_0_13_181
*409 FILLER_0_13_193
*410 FILLER_0_13_205
*411 FILLER_0_13_217
*412 FILLER_0_13_223
*413 FILLER_0_13_225
*414 FILLER_0_13_237
*415 FILLER_0_13_249
*416 FILLER_0_13_261
*417 FILLER_0_13_27
*418 FILLER_0_13_273
*419 FILLER_0_13_279
*420 FILLER_0_13_281
*421 FILLER_0_13_293
*422 FILLER_0_13_3
*423 FILLER_0_13_305
*424 FILLER_0_13_317
*425 FILLER_0_13_329
*426 FILLER_0_13_335
*427 FILLER_0_13_337
*428 FILLER_0_13_349
*429 FILLER_0_13_39
*430 FILLER_0_13_51
*431 FILLER_0_13_55
*432 FILLER_0_13_57
*433 FILLER_0_13_69
*434 FILLER_0_13_81
*435 FILLER_0_13_93
*436 FILLER_0_14_109
*437 FILLER_0_14_121
*438 FILLER_0_14_133
*439 FILLER_0_14_139
*440 FILLER_0_14_141
*441 FILLER_0_14_15
*442 FILLER_0_14_153
*443 FILLER_0_14_165
*444 FILLER_0_14_177
*445 FILLER_0_14_189
*446 FILLER_0_14_195
*447 FILLER_0_14_197
*448 FILLER_0_14_209
*449 FILLER_0_14_221
*450 FILLER_0_14_233
*451 FILLER_0_14_245
*452 FILLER_0_14_251
*453 FILLER_0_14_253
*454 FILLER_0_14_265
*455 FILLER_0_14_27
*456 FILLER_0_14_277
*457 FILLER_0_14_289
*458 FILLER_0_14_29
*459 FILLER_0_14_3
*460 FILLER_0_14_301
*461 FILLER_0_14_307
*462 FILLER_0_14_309
*463 FILLER_0_14_321
*464 FILLER_0_14_333
*465 FILLER_0_14_345
*466 FILLER_0_14_41
*467 FILLER_0_14_53
*468 FILLER_0_14_65
*469 FILLER_0_14_77
*470 FILLER_0_14_83
*471 FILLER_0_14_85
*472 FILLER_0_14_97
*473 FILLER_0_15_105
*474 FILLER_0_15_111
*475 FILLER_0_15_113
*476 FILLER_0_15_125
*477 FILLER_0_15_137
*478 FILLER_0_15_149
*479 FILLER_0_15_15
*480 FILLER_0_15_161
*481 FILLER_0_15_167
*482 FILLER_0_15_169
*483 FILLER_0_15_181
*484 FILLER_0_15_193
*485 FILLER_0_15_205
*486 FILLER_0_15_217
*487 FILLER_0_15_223
*488 FILLER_0_15_225
*489 FILLER_0_15_237
*490 FILLER_0_15_249
*491 FILLER_0_15_261
*492 FILLER_0_15_27
*493 FILLER_0_15_273
*494 FILLER_0_15_279
*495 FILLER_0_15_281
*496 FILLER_0_15_293
*497 FILLER_0_15_3
*498 FILLER_0_15_305
*499 FILLER_0_15_317
*500 FILLER_0_15_329
*501 FILLER_0_15_335
*502 FILLER_0_15_337
*503 FILLER_0_15_349
*504 FILLER_0_15_39
*505 FILLER_0_15_51
*506 FILLER_0_15_55
*507 FILLER_0_15_57
*508 FILLER_0_15_69
*509 FILLER_0_15_81
*510 FILLER_0_15_93
*511 FILLER_0_16_109
*512 FILLER_0_16_121
*513 FILLER_0_16_133
*514 FILLER_0_16_139
*515 FILLER_0_16_141
*516 FILLER_0_16_15
*517 FILLER_0_16_153
*518 FILLER_0_16_165
*519 FILLER_0_16_177
*520 FILLER_0_16_189
*521 FILLER_0_16_195
*522 FILLER_0_16_197
*523 FILLER_0_16_209
*524 FILLER_0_16_221
*525 FILLER_0_16_233
*526 FILLER_0_16_245
*527 FILLER_0_16_251
*528 FILLER_0_16_253
*529 FILLER_0_16_265
*530 FILLER_0_16_27
*531 FILLER_0_16_277
*532 FILLER_0_16_289
*533 FILLER_0_16_29
*534 FILLER_0_16_3
*535 FILLER_0_16_301
*536 FILLER_0_16_307
*537 FILLER_0_16_309
*538 FILLER_0_16_321
*539 FILLER_0_16_333
*540 FILLER_0_16_345
*541 FILLER_0_16_41
*542 FILLER_0_16_53
*543 FILLER_0_16_65
*544 FILLER_0_16_77
*545 FILLER_0_16_83
*546 FILLER_0_16_85
*547 FILLER_0_16_97
*548 FILLER_0_17_105
*549 FILLER_0_17_111
*550 FILLER_0_17_113
*551 FILLER_0_17_125
*552 FILLER_0_17_137
*553 FILLER_0_17_149
*554 FILLER_0_17_15
*555 FILLER_0_17_161
*556 FILLER_0_17_167
*557 FILLER_0_17_169
*558 FILLER_0_17_181
*559 FILLER_0_17_193
*560 FILLER_0_17_205
*561 FILLER_0_17_217
*562 FILLER_0_17_223
*563 FILLER_0_17_225
*564 FILLER_0_17_237
*565 FILLER_0_17_249
*566 FILLER_0_17_261
*567 FILLER_0_17_27
*568 FILLER_0_17_273
*569 FILLER_0_17_279
*570 FILLER_0_17_281
*571 FILLER_0_17_293
*572 FILLER_0_17_3
*573 FILLER_0_17_305
*574 FILLER_0_17_317
*575 FILLER_0_17_329
*576 FILLER_0_17_335
*577 FILLER_0_17_337
*578 FILLER_0_17_349
*579 FILLER_0_17_39
*580 FILLER_0_17_51
*581 FILLER_0_17_55
*582 FILLER_0_17_57
*583 FILLER_0_17_69
*584 FILLER_0_17_81
*585 FILLER_0_17_93
*586 FILLER_0_18_109
*587 FILLER_0_18_121
*588 FILLER_0_18_133
*589 FILLER_0_18_139
*590 FILLER_0_18_141
*591 FILLER_0_18_15
*592 FILLER_0_18_153
*593 FILLER_0_18_165
*594 FILLER_0_18_177
*595 FILLER_0_18_189
*596 FILLER_0_18_195
*597 FILLER_0_18_197
*598 FILLER_0_18_209
*599 FILLER_0_18_221
*600 FILLER_0_18_233
*601 FILLER_0_18_245
*602 FILLER_0_18_251
*603 FILLER_0_18_253
*604 FILLER_0_18_265
*605 FILLER_0_18_27
*606 FILLER_0_18_277
*607 FILLER_0_18_289
*608 FILLER_0_18_29
*609 FILLER_0_18_3
*610 FILLER_0_18_301
*611 FILLER_0_18_307
*612 FILLER_0_18_309
*613 FILLER_0_18_321
*614 FILLER_0_18_333
*615 FILLER_0_18_345
*616 FILLER_0_18_41
*617 FILLER_0_18_53
*618 FILLER_0_18_65
*619 FILLER_0_18_77
*620 FILLER_0_18_83
*621 FILLER_0_18_85
*622 FILLER_0_18_97
*623 FILLER_0_19_105
*624 FILLER_0_19_111
*625 FILLER_0_19_113
*626 FILLER_0_19_125
*627 FILLER_0_19_137
*628 FILLER_0_19_149
*629 FILLER_0_19_15
*630 FILLER_0_19_161
*631 FILLER_0_19_167
*632 FILLER_0_19_169
*633 FILLER_0_19_181
*634 FILLER_0_19_193
*635 FILLER_0_19_205
*636 FILLER_0_19_217
*637 FILLER_0_19_223
*638 FILLER_0_19_225
*639 FILLER_0_19_237
*640 FILLER_0_19_249
*641 FILLER_0_19_261
*642 FILLER_0_19_27
*643 FILLER_0_19_273
*644 FILLER_0_19_279
*645 FILLER_0_19_281
*646 FILLER_0_19_293
*647 FILLER_0_19_3
*648 FILLER_0_19_305
*649 FILLER_0_19_317
*650 FILLER_0_19_329
*651 FILLER_0_19_335
*652 FILLER_0_19_337
*653 FILLER_0_19_349
*654 FILLER_0_19_39
*655 FILLER_0_19_51
*656 FILLER_0_19_55
*657 FILLER_0_19_57
*658 FILLER_0_19_69
*659 FILLER_0_19_81
*660 FILLER_0_19_93
*661 FILLER_0_1_105
*662 FILLER_0_1_111
*663 FILLER_0_1_113
*664 FILLER_0_1_125
*665 FILLER_0_1_137
*666 FILLER_0_1_149
*667 FILLER_0_1_15
*668 FILLER_0_1_161
*669 FILLER_0_1_167
*670 FILLER_0_1_169
*671 FILLER_0_1_181
*672 FILLER_0_1_193
*673 FILLER_0_1_205
*674 FILLER_0_1_217
*675 FILLER_0_1_223
*676 FILLER_0_1_225
*677 FILLER_0_1_237
*678 FILLER_0_1_249
*679 FILLER_0_1_261
*680 FILLER_0_1_27
*681 FILLER_0_1_273
*682 FILLER_0_1_279
*683 FILLER_0_1_281
*684 FILLER_0_1_293
*685 FILLER_0_1_3
*686 FILLER_0_1_305
*687 FILLER_0_1_317
*688 FILLER_0_1_329
*689 FILLER_0_1_335
*690 FILLER_0_1_337
*691 FILLER_0_1_349
*692 FILLER_0_1_39
*693 FILLER_0_1_51
*694 FILLER_0_1_55
*695 FILLER_0_1_57
*696 FILLER_0_1_69
*697 FILLER_0_1_81
*698 FILLER_0_1_93
*699 FILLER_0_20_109
*700 FILLER_0_20_121
*701 FILLER_0_20_133
*702 FILLER_0_20_139
*703 FILLER_0_20_141
*704 FILLER_0_20_15
*705 FILLER_0_20_153
*706 FILLER_0_20_165
*707 FILLER_0_20_177
*708 FILLER_0_20_189
*709 FILLER_0_20_195
*710 FILLER_0_20_197
*711 FILLER_0_20_209
*712 FILLER_0_20_221
*713 FILLER_0_20_233
*714 FILLER_0_20_245
*715 FILLER_0_20_251
*716 FILLER_0_20_253
*717 FILLER_0_20_265
*718 FILLER_0_20_27
*719 FILLER_0_20_277
*720 FILLER_0_20_289
*721 FILLER_0_20_29
*722 FILLER_0_20_3
*723 FILLER_0_20_301
*724 FILLER_0_20_307
*725 FILLER_0_20_309
*726 FILLER_0_20_321
*727 FILLER_0_20_333
*728 FILLER_0_20_345
*729 FILLER_0_20_41
*730 FILLER_0_20_53
*731 FILLER_0_20_65
*732 FILLER_0_20_77
*733 FILLER_0_20_83
*734 FILLER_0_20_85
*735 FILLER_0_20_97
*736 FILLER_0_21_105
*737 FILLER_0_21_111
*738 FILLER_0_21_113
*739 FILLER_0_21_125
*740 FILLER_0_21_137
*741 FILLER_0_21_149
*742 FILLER_0_21_15
*743 FILLER_0_21_161
*744 FILLER_0_21_167
*745 FILLER_0_21_169
*746 FILLER_0_21_181
*747 FILLER_0_21_193
*748 FILLER_0_21_205
*749 FILLER_0_21_217
*750 FILLER_0_21_223
*751 FILLER_0_21_225
*752 FILLER_0_21_237
*753 FILLER_0_21_249
*754 FILLER_0_21_261
*755 FILLER_0_21_27
*756 FILLER_0_21_273
*757 FILLER_0_21_279
*758 FILLER_0_21_281
*759 FILLER_0_21_293
*760 FILLER_0_21_3
*761 FILLER_0_21_305
*762 FILLER_0_21_317
*763 FILLER_0_21_329
*764 FILLER_0_21_335
*765 FILLER_0_21_337
*766 FILLER_0_21_349
*767 FILLER_0_21_39
*768 FILLER_0_21_51
*769 FILLER_0_21_55
*770 FILLER_0_21_57
*771 FILLER_0_21_69
*772 FILLER_0_21_81
*773 FILLER_0_21_93
*774 FILLER_0_22_109
*775 FILLER_0_22_121
*776 FILLER_0_22_133
*777 FILLER_0_22_139
*778 FILLER_0_22_141
*779 FILLER_0_22_15
*780 FILLER_0_22_153
*781 FILLER_0_22_165
*782 FILLER_0_22_177
*783 FILLER_0_22_189
*784 FILLER_0_22_195
*785 FILLER_0_22_197
*786 FILLER_0_22_209
*787 FILLER_0_22_221
*788 FILLER_0_22_233
*789 FILLER_0_22_245
*790 FILLER_0_22_251
*791 FILLER_0_22_253
*792 FILLER_0_22_265
*793 FILLER_0_22_27
*794 FILLER_0_22_277
*795 FILLER_0_22_289
*796 FILLER_0_22_29
*797 FILLER_0_22_3
*798 FILLER_0_22_301
*799 FILLER_0_22_307
*800 FILLER_0_22_309
*801 FILLER_0_22_321
*802 FILLER_0_22_333
*803 FILLER_0_22_345
*804 FILLER_0_22_41
*805 FILLER_0_22_53
*806 FILLER_0_22_65
*807 FILLER_0_22_77
*808 FILLER_0_22_83
*809 FILLER_0_22_85
*810 FILLER_0_22_97
*811 FILLER_0_23_105
*812 FILLER_0_23_111
*813 FILLER_0_23_113
*814 FILLER_0_23_125
*815 FILLER_0_23_137
*816 FILLER_0_23_149
*817 FILLER_0_23_15
*818 FILLER_0_23_161
*819 FILLER_0_23_167
*820 FILLER_0_23_169
*821 FILLER_0_23_181
*822 FILLER_0_23_193
*823 FILLER_0_23_205
*824 FILLER_0_23_217
*825 FILLER_0_23_223
*826 FILLER_0_23_225
*827 FILLER_0_23_237
*828 FILLER_0_23_249
*829 FILLER_0_23_261
*830 FILLER_0_23_27
*831 FILLER_0_23_273
*832 FILLER_0_23_279
*833 FILLER_0_23_281
*834 FILLER_0_23_293
*835 FILLER_0_23_3
*836 FILLER_0_23_305
*837 FILLER_0_23_317
*838 FILLER_0_23_329
*839 FILLER_0_23_335
*840 FILLER_0_23_337
*841 FILLER_0_23_349
*842 FILLER_0_23_39
*843 FILLER_0_23_51
*844 FILLER_0_23_55
*845 FILLER_0_23_57
*846 FILLER_0_23_69
*847 FILLER_0_23_81
*848 FILLER_0_23_93
*849 FILLER_0_24_109
*850 FILLER_0_24_132
*851 FILLER_0_24_141
*852 FILLER_0_24_15
*853 FILLER_0_24_153
*854 FILLER_0_24_165
*855 FILLER_0_24_177
*856 FILLER_0_24_189
*857 FILLER_0_24_195
*858 FILLER_0_24_197
*859 FILLER_0_24_209
*860 FILLER_0_24_221
*861 FILLER_0_24_233
*862 FILLER_0_24_245
*863 FILLER_0_24_251
*864 FILLER_0_24_253
*865 FILLER_0_24_265
*866 FILLER_0_24_27
*867 FILLER_0_24_277
*868 FILLER_0_24_289
*869 FILLER_0_24_29
*870 FILLER_0_24_3
*871 FILLER_0_24_301
*872 FILLER_0_24_307
*873 FILLER_0_24_309
*874 FILLER_0_24_321
*875 FILLER_0_24_333
*876 FILLER_0_24_345
*877 FILLER_0_24_41
*878 FILLER_0_24_53
*879 FILLER_0_24_65
*880 FILLER_0_24_77
*881 FILLER_0_24_83
*882 FILLER_0_24_85
*883 FILLER_0_24_97
*884 FILLER_0_25_105
*885 FILLER_0_25_111
*886 FILLER_0_25_113
*887 FILLER_0_25_125
*888 FILLER_0_25_137
*889 FILLER_0_25_149
*890 FILLER_0_25_15
*891 FILLER_0_25_161
*892 FILLER_0_25_167
*893 FILLER_0_25_169
*894 FILLER_0_25_181
*895 FILLER_0_25_193
*896 FILLER_0_25_205
*897 FILLER_0_25_217
*898 FILLER_0_25_223
*899 FILLER_0_25_225
*900 FILLER_0_25_237
*901 FILLER_0_25_249
*902 FILLER_0_25_261
*903 FILLER_0_25_27
*904 FILLER_0_25_273
*905 FILLER_0_25_279
*906 FILLER_0_25_281
*907 FILLER_0_25_293
*908 FILLER_0_25_3
*909 FILLER_0_25_305
*910 FILLER_0_25_317
*911 FILLER_0_25_329
*912 FILLER_0_25_335
*913 FILLER_0_25_337
*914 FILLER_0_25_349
*915 FILLER_0_25_39
*916 FILLER_0_25_51
*917 FILLER_0_25_55
*918 FILLER_0_25_57
*919 FILLER_0_25_69
*920 FILLER_0_25_81
*921 FILLER_0_25_93
*922 FILLER_0_26_109
*923 FILLER_0_26_121
*924 FILLER_0_26_133
*925 FILLER_0_26_139
*926 FILLER_0_26_141
*927 FILLER_0_26_15
*928 FILLER_0_26_153
*929 FILLER_0_26_165
*930 FILLER_0_26_177
*931 FILLER_0_26_189
*932 FILLER_0_26_195
*933 FILLER_0_26_197
*934 FILLER_0_26_209
*935 FILLER_0_26_221
*936 FILLER_0_26_233
*937 FILLER_0_26_245
*938 FILLER_0_26_251
*939 FILLER_0_26_253
*940 FILLER_0_26_265
*941 FILLER_0_26_27
*942 FILLER_0_26_277
*943 FILLER_0_26_289
*944 FILLER_0_26_29
*945 FILLER_0_26_3
*946 FILLER_0_26_301
*947 FILLER_0_26_307
*948 FILLER_0_26_309
*949 FILLER_0_26_321
*950 FILLER_0_26_333
*951 FILLER_0_26_345
*952 FILLER_0_26_41
*953 FILLER_0_26_53
*954 FILLER_0_26_65
*955 FILLER_0_26_77
*956 FILLER_0_26_83
*957 FILLER_0_26_85
*958 FILLER_0_26_97
*959 FILLER_0_27_105
*960 FILLER_0_27_111
*961 FILLER_0_27_113
*962 FILLER_0_27_125
*963 FILLER_0_27_137
*964 FILLER_0_27_149
*965 FILLER_0_27_15
*966 FILLER_0_27_161
*967 FILLER_0_27_167
*968 FILLER_0_27_169
*969 FILLER_0_27_181
*970 FILLER_0_27_193
*971 FILLER_0_27_205
*972 FILLER_0_27_217
*973 FILLER_0_27_223
*974 FILLER_0_27_225
*975 FILLER_0_27_237
*976 FILLER_0_27_249
*977 FILLER_0_27_261
*978 FILLER_0_27_27
*979 FILLER_0_27_273
*980 FILLER_0_27_279
*981 FILLER_0_27_281
*982 FILLER_0_27_293
*983 FILLER_0_27_3
*984 FILLER_0_27_305
*985 FILLER_0_27_317
*986 FILLER_0_27_329
*987 FILLER_0_27_335
*988 FILLER_0_27_337
*989 FILLER_0_27_349
*990 FILLER_0_27_39
*991 FILLER_0_27_51
*992 FILLER_0_27_55
*993 FILLER_0_27_57
*994 FILLER_0_27_69
*995 FILLER_0_27_81
*996 FILLER_0_27_93
*997 FILLER_0_28_109
*998 FILLER_0_28_121
*999 FILLER_0_28_133
*1000 FILLER_0_28_139
*1001 FILLER_0_28_141
*1002 FILLER_0_28_15
*1003 FILLER_0_28_153
*1004 FILLER_0_28_165
*1005 FILLER_0_28_177
*1006 FILLER_0_28_189
*1007 FILLER_0_28_195
*1008 FILLER_0_28_197
*1009 FILLER_0_28_209
*1010 FILLER_0_28_221
*1011 FILLER_0_28_233
*1012 FILLER_0_28_245
*1013 FILLER_0_28_251
*1014 FILLER_0_28_253
*1015 FILLER_0_28_265
*1016 FILLER_0_28_27
*1017 FILLER_0_28_277
*1018 FILLER_0_28_289
*1019 FILLER_0_28_29
*1020 FILLER_0_28_3
*1021 FILLER_0_28_301
*1022 FILLER_0_28_307
*1023 FILLER_0_28_309
*1024 FILLER_0_28_321
*1025 FILLER_0_28_333
*1026 FILLER_0_28_345
*1027 FILLER_0_28_41
*1028 FILLER_0_28_53
*1029 FILLER_0_28_65
*1030 FILLER_0_28_77
*1031 FILLER_0_28_83
*1032 FILLER_0_28_85
*1033 FILLER_0_28_97
*1034 FILLER_0_29_101
*1035 FILLER_0_29_108
*1036 FILLER_0_29_113
*1037 FILLER_0_29_117
*1038 FILLER_0_29_124
*1039 FILLER_0_29_134
*1040 FILLER_0_29_15
*1041 FILLER_0_29_164
*1042 FILLER_0_29_169
*1043 FILLER_0_29_181
*1044 FILLER_0_29_193
*1045 FILLER_0_29_205
*1046 FILLER_0_29_217
*1047 FILLER_0_29_223
*1048 FILLER_0_29_225
*1049 FILLER_0_29_251
*1050 FILLER_0_29_263
*1051 FILLER_0_29_27
*1052 FILLER_0_29_275
*1053 FILLER_0_29_279
*1054 FILLER_0_29_281
*1055 FILLER_0_29_293
*1056 FILLER_0_29_3
*1057 FILLER_0_29_305
*1058 FILLER_0_29_317
*1059 FILLER_0_29_329
*1060 FILLER_0_29_335
*1061 FILLER_0_29_337
*1062 FILLER_0_29_349
*1063 FILLER_0_29_39
*1064 FILLER_0_29_51
*1065 FILLER_0_29_55
*1066 FILLER_0_2_109
*1067 FILLER_0_2_121
*1068 FILLER_0_2_133
*1069 FILLER_0_2_139
*1070 FILLER_0_2_141
*1071 FILLER_0_2_15
*1072 FILLER_0_2_153
*1073 FILLER_0_2_165
*1074 FILLER_0_2_177
*1075 FILLER_0_2_189
*1076 FILLER_0_2_195
*1077 FILLER_0_2_197
*1078 FILLER_0_2_209
*1079 FILLER_0_2_221
*1080 FILLER_0_2_233
*1081 FILLER_0_2_245
*1082 FILLER_0_2_251
*1083 FILLER_0_2_253
*1084 FILLER_0_2_265
*1085 FILLER_0_2_27
*1086 FILLER_0_2_277
*1087 FILLER_0_2_289
*1088 FILLER_0_2_29
*1089 FILLER_0_2_3
*1090 FILLER_0_2_301
*1091 FILLER_0_2_307
*1092 FILLER_0_2_309
*1093 FILLER_0_2_321
*1094 FILLER_0_2_333
*1095 FILLER_0_2_345
*1096 FILLER_0_2_41
*1097 FILLER_0_2_53
*1098 FILLER_0_2_65
*1099 FILLER_0_2_77
*1100 FILLER_0_2_83
*1101 FILLER_0_2_85
*1102 FILLER_0_2_97
*1103 FILLER_0_30_102
*1104 FILLER_0_30_112
*1105 FILLER_0_30_126
*1106 FILLER_0_30_138
*1107 FILLER_0_30_141
*1108 FILLER_0_30_15
*1109 FILLER_0_30_153
*1110 FILLER_0_30_200
*1111 FILLER_0_30_212
*1112 FILLER_0_30_224
*1113 FILLER_0_30_236
*1114 FILLER_0_30_241
*1115 FILLER_0_30_249
*1116 FILLER_0_30_253
*1117 FILLER_0_30_257
*1118 FILLER_0_30_261
*1119 FILLER_0_30_265
*1120 FILLER_0_30_269
*1121 FILLER_0_30_27
*1122 FILLER_0_30_289
*1123 FILLER_0_30_29
*1124 FILLER_0_30_3
*1125 FILLER_0_30_301
*1126 FILLER_0_30_307
*1127 FILLER_0_30_309
*1128 FILLER_0_30_321
*1129 FILLER_0_30_333
*1130 FILLER_0_30_345
*1131 FILLER_0_30_41
*1132 FILLER_0_30_53
*1133 FILLER_0_30_59
*1134 FILLER_0_30_63
*1135 FILLER_0_30_75
*1136 FILLER_0_30_83
*1137 FILLER_0_30_90
*1138 FILLER_0_31_113
*1139 FILLER_0_31_123
*1140 FILLER_0_31_131
*1141 FILLER_0_31_141
*1142 FILLER_0_31_15
*1143 FILLER_0_31_165
*1144 FILLER_0_31_180
*1145 FILLER_0_31_184
*1146 FILLER_0_31_205
*1147 FILLER_0_31_213
*1148 FILLER_0_31_219
*1149 FILLER_0_31_223
*1150 FILLER_0_31_225
*1151 FILLER_0_31_233
*1152 FILLER_0_31_250
*1153 FILLER_0_31_261
*1154 FILLER_0_31_27
*1155 FILLER_0_31_278
*1156 FILLER_0_31_3
*1157 FILLER_0_31_318
*1158 FILLER_0_31_33
*1159 FILLER_0_31_330
*1160 FILLER_0_31_337
*1161 FILLER_0_31_349
*1162 FILLER_0_31_47
*1163 FILLER_0_31_72
*1164 FILLER_0_31_91
*1165 FILLER_0_32_101
*1166 FILLER_0_32_105
*1167 FILLER_0_32_109
*1168 FILLER_0_32_117
*1169 FILLER_0_32_141
*1170 FILLER_0_32_15
*1171 FILLER_0_32_153
*1172 FILLER_0_32_161
*1173 FILLER_0_32_169
*1174 FILLER_0_32_189
*1175 FILLER_0_32_195
*1176 FILLER_0_32_200
*1177 FILLER_0_32_228
*1178 FILLER_0_32_240
*1179 FILLER_0_32_27
*1180 FILLER_0_32_283
*1181 FILLER_0_32_287
*1182 FILLER_0_32_29
*1183 FILLER_0_32_291
*1184 FILLER_0_32_299
*1185 FILLER_0_32_3
*1186 FILLER_0_32_305
*1187 FILLER_0_32_329
*1188 FILLER_0_32_341
*1189 FILLER_0_32_349
*1190 FILLER_0_32_35
*1191 FILLER_0_32_47
*1192 FILLER_0_32_59
*1193 FILLER_0_32_67
*1194 FILLER_0_32_77
*1195 FILLER_0_32_83
*1196 FILLER_0_32_85
*1197 FILLER_0_33_103
*1198 FILLER_0_33_113
*1199 FILLER_0_33_139
*1200 FILLER_0_33_15
*1201 FILLER_0_33_165
*1202 FILLER_0_33_169
*1203 FILLER_0_33_181
*1204 FILLER_0_33_189
*1205 FILLER_0_33_219
*1206 FILLER_0_33_223
*1207 FILLER_0_33_234
*1208 FILLER_0_33_246
*1209 FILLER_0_33_258
*1210 FILLER_0_33_27
*1211 FILLER_0_33_270
*1212 FILLER_0_33_278
*1213 FILLER_0_33_281
*1214 FILLER_0_33_299
*1215 FILLER_0_33_3
*1216 FILLER_0_33_311
*1217 FILLER_0_33_334
*1218 FILLER_0_33_337
*1219 FILLER_0_33_349
*1220 FILLER_0_33_35
*1221 FILLER_0_33_42
*1222 FILLER_0_33_53
*1223 FILLER_0_33_57
*1224 FILLER_0_33_65
*1225 FILLER_0_33_75
*1226 FILLER_0_33_96
*1227 FILLER_0_34_113
*1228 FILLER_0_34_119
*1229 FILLER_0_34_123
*1230 FILLER_0_34_129
*1231 FILLER_0_34_137
*1232 FILLER_0_34_144
*1233 FILLER_0_34_148
*1234 FILLER_0_34_15
*1235 FILLER_0_34_156
*1236 FILLER_0_34_194
*1237 FILLER_0_34_217
*1238 FILLER_0_34_222
*1239 FILLER_0_34_246
*1240 FILLER_0_34_27
*1241 FILLER_0_34_29
*1242 FILLER_0_34_3
*1243 FILLER_0_34_304
*1244 FILLER_0_34_309
*1245 FILLER_0_34_313
*1246 FILLER_0_34_319
*1247 FILLER_0_34_327
*1248 FILLER_0_34_339
*1249 FILLER_0_34_41
*1250 FILLER_0_34_45
*1251 FILLER_0_34_57
*1252 FILLER_0_34_81
*1253 FILLER_0_35_106
*1254 FILLER_0_35_15
*1255 FILLER_0_35_163
*1256 FILLER_0_35_167
*1257 FILLER_0_35_169
*1258 FILLER_0_35_181
*1259 FILLER_0_35_193
*1260 FILLER_0_35_201
*1261 FILLER_0_35_208
*1262 FILLER_0_35_216
*1263 FILLER_0_35_225
*1264 FILLER_0_35_235
*1265 FILLER_0_35_242
*1266 FILLER_0_35_262
*1267 FILLER_0_35_266
*1268 FILLER_0_35_27
*1269 FILLER_0_35_279
*1270 FILLER_0_35_281
*1271 FILLER_0_35_297
*1272 FILLER_0_35_3
*1273 FILLER_0_35_306
*1274 FILLER_0_35_337
*1275 FILLER_0_35_349
*1276 FILLER_0_35_39
*1277 FILLER_0_35_51
*1278 FILLER_0_35_55
*1279 FILLER_0_35_57
*1280 FILLER_0_35_69
*1281 FILLER_0_35_88
*1282 FILLER_0_35_97
*1283 FILLER_0_36_115
*1284 FILLER_0_36_127
*1285 FILLER_0_36_139
*1286 FILLER_0_36_149
*1287 FILLER_0_36_15
*1288 FILLER_0_36_160
*1289 FILLER_0_36_168
*1290 FILLER_0_36_174
*1291 FILLER_0_36_180
*1292 FILLER_0_36_184
*1293 FILLER_0_36_197
*1294 FILLER_0_36_209
*1295 FILLER_0_36_217
*1296 FILLER_0_36_223
*1297 FILLER_0_36_235
*1298 FILLER_0_36_250
*1299 FILLER_0_36_253
*1300 FILLER_0_36_27
*1301 FILLER_0_36_271
*1302 FILLER_0_36_280
*1303 FILLER_0_36_288
*1304 FILLER_0_36_29
*1305 FILLER_0_36_3
*1306 FILLER_0_36_307
*1307 FILLER_0_36_309
*1308 FILLER_0_36_321
*1309 FILLER_0_36_343
*1310 FILLER_0_36_35
*1311 FILLER_0_36_55
*1312 FILLER_0_36_80
*1313 FILLER_0_36_85
*1314 FILLER_0_36_91
*1315 FILLER_0_37_111
*1316 FILLER_0_37_113
*1317 FILLER_0_37_117
*1318 FILLER_0_37_121
*1319 FILLER_0_37_129
*1320 FILLER_0_37_147
*1321 FILLER_0_37_15
*1322 FILLER_0_37_167
*1323 FILLER_0_37_169
*1324 FILLER_0_37_191
*1325 FILLER_0_37_233
*1326 FILLER_0_37_244
*1327 FILLER_0_37_254
*1328 FILLER_0_37_262
*1329 FILLER_0_37_266
*1330 FILLER_0_37_27
*1331 FILLER_0_37_278
*1332 FILLER_0_37_281
*1333 FILLER_0_37_299
*1334 FILLER_0_37_3
*1335 FILLER_0_37_317
*1336 FILLER_0_37_329
*1337 FILLER_0_37_334
*1338 FILLER_0_37_337
*1339 FILLER_0_37_349
*1340 FILLER_0_37_39
*1341 FILLER_0_37_47
*1342 FILLER_0_37_51
*1343 FILLER_0_37_55
*1344 FILLER_0_37_57
*1345 FILLER_0_37_69
*1346 FILLER_0_37_99
*1347 FILLER_0_38_104
*1348 FILLER_0_38_110
*1349 FILLER_0_38_136
*1350 FILLER_0_38_145
*1351 FILLER_0_38_15
*1352 FILLER_0_38_153
*1353 FILLER_0_38_164
*1354 FILLER_0_38_178
*1355 FILLER_0_38_188
*1356 FILLER_0_38_194
*1357 FILLER_0_38_200
*1358 FILLER_0_38_212
*1359 FILLER_0_38_223
*1360 FILLER_0_38_230
*1361 FILLER_0_38_242
*1362 FILLER_0_38_253
*1363 FILLER_0_38_27
*1364 FILLER_0_38_279
*1365 FILLER_0_38_29
*1366 FILLER_0_38_3
*1367 FILLER_0_38_309
*1368 FILLER_0_38_335
*1369 FILLER_0_38_337
*1370 FILLER_0_38_349
*1371 FILLER_0_38_41
*1372 FILLER_0_38_53
*1373 FILLER_0_38_57
*1374 FILLER_0_38_68
*1375 FILLER_0_38_74
*1376 FILLER_0_38_80
*1377 FILLER_0_38_88
*1378 FILLER_0_38_92
*1379 FILLER_0_38_98
*1380 FILLER_0_3_105
*1381 FILLER_0_3_111
*1382 FILLER_0_3_113
*1383 FILLER_0_3_125
*1384 FILLER_0_3_137
*1385 FILLER_0_3_149
*1386 FILLER_0_3_15
*1387 FILLER_0_3_161
*1388 FILLER_0_3_167
*1389 FILLER_0_3_169
*1390 FILLER_0_3_181
*1391 FILLER_0_3_193
*1392 FILLER_0_3_205
*1393 FILLER_0_3_217
*1394 FILLER_0_3_223
*1395 FILLER_0_3_225
*1396 FILLER_0_3_237
*1397 FILLER_0_3_249
*1398 FILLER_0_3_261
*1399 FILLER_0_3_27
*1400 FILLER_0_3_273
*1401 FILLER_0_3_279
*1402 FILLER_0_3_281
*1403 FILLER_0_3_293
*1404 FILLER_0_3_3
*1405 FILLER_0_3_305
*1406 FILLER_0_3_317
*1407 FILLER_0_3_329
*1408 FILLER_0_3_335
*1409 FILLER_0_3_337
*1410 FILLER_0_3_349
*1411 FILLER_0_3_39
*1412 FILLER_0_3_51
*1413 FILLER_0_3_55
*1414 FILLER_0_3_57
*1415 FILLER_0_3_69
*1416 FILLER_0_3_81
*1417 FILLER_0_3_93
*1418 FILLER_0_4_109
*1419 FILLER_0_4_121
*1420 FILLER_0_4_133
*1421 FILLER_0_4_139
*1422 FILLER_0_4_141
*1423 FILLER_0_4_15
*1424 FILLER_0_4_153
*1425 FILLER_0_4_165
*1426 FILLER_0_4_177
*1427 FILLER_0_4_189
*1428 FILLER_0_4_195
*1429 FILLER_0_4_197
*1430 FILLER_0_4_209
*1431 FILLER_0_4_221
*1432 FILLER_0_4_233
*1433 FILLER_0_4_245
*1434 FILLER_0_4_251
*1435 FILLER_0_4_253
*1436 FILLER_0_4_265
*1437 FILLER_0_4_27
*1438 FILLER_0_4_277
*1439 FILLER_0_4_289
*1440 FILLER_0_4_29
*1441 FILLER_0_4_3
*1442 FILLER_0_4_301
*1443 FILLER_0_4_307
*1444 FILLER_0_4_309
*1445 FILLER_0_4_321
*1446 FILLER_0_4_333
*1447 FILLER_0_4_345
*1448 FILLER_0_4_41
*1449 FILLER_0_4_53
*1450 FILLER_0_4_65
*1451 FILLER_0_4_77
*1452 FILLER_0_4_83
*1453 FILLER_0_4_85
*1454 FILLER_0_4_97
*1455 FILLER_0_5_105
*1456 FILLER_0_5_111
*1457 FILLER_0_5_113
*1458 FILLER_0_5_125
*1459 FILLER_0_5_137
*1460 FILLER_0_5_149
*1461 FILLER_0_5_15
*1462 FILLER_0_5_161
*1463 FILLER_0_5_167
*1464 FILLER_0_5_169
*1465 FILLER_0_5_181
*1466 FILLER_0_5_193
*1467 FILLER_0_5_205
*1468 FILLER_0_5_217
*1469 FILLER_0_5_223
*1470 FILLER_0_5_225
*1471 FILLER_0_5_237
*1472 FILLER_0_5_249
*1473 FILLER_0_5_261
*1474 FILLER_0_5_27
*1475 FILLER_0_5_273
*1476 FILLER_0_5_279
*1477 FILLER_0_5_281
*1478 FILLER_0_5_293
*1479 FILLER_0_5_3
*1480 FILLER_0_5_305
*1481 FILLER_0_5_317
*1482 FILLER_0_5_329
*1483 FILLER_0_5_335
*1484 FILLER_0_5_337
*1485 FILLER_0_5_349
*1486 FILLER_0_5_39
*1487 FILLER_0_5_51
*1488 FILLER_0_5_55
*1489 FILLER_0_5_57
*1490 FILLER_0_5_69
*1491 FILLER_0_5_81
*1492 FILLER_0_5_93
*1493 FILLER_0_6_109
*1494 FILLER_0_6_121
*1495 FILLER_0_6_133
*1496 FILLER_0_6_139
*1497 FILLER_0_6_141
*1498 FILLER_0_6_15
*1499 FILLER_0_6_153
*1500 FILLER_0_6_165
*1501 FILLER_0_6_177
*1502 FILLER_0_6_189
*1503 FILLER_0_6_195
*1504 FILLER_0_6_197
*1505 FILLER_0_6_209
*1506 FILLER_0_6_221
*1507 FILLER_0_6_233
*1508 FILLER_0_6_245
*1509 FILLER_0_6_251
*1510 FILLER_0_6_253
*1511 FILLER_0_6_265
*1512 FILLER_0_6_27
*1513 FILLER_0_6_277
*1514 FILLER_0_6_289
*1515 FILLER_0_6_29
*1516 FILLER_0_6_3
*1517 FILLER_0_6_301
*1518 FILLER_0_6_307
*1519 FILLER_0_6_309
*1520 FILLER_0_6_321
*1521 FILLER_0_6_333
*1522 FILLER_0_6_345
*1523 FILLER_0_6_41
*1524 FILLER_0_6_53
*1525 FILLER_0_6_65
*1526 FILLER_0_6_77
*1527 FILLER_0_6_83