*SPEF "ieee 1481-1999"
*DESIGN "tt_um_4_bit_pipeline_multiplier"
*DATE "11:11:11 Fri 11 11, 1111"
*VENDOR "OpenRCX"
*PROGRAM "Parallel Extraction"
*VERSION "1.0"
*DESIGN_FLOW "NAME_SCOPE LOCAL" "PIN_CAP NONE"
*DIVIDER /
*DELIMITER :
*BUS_DELIMITER []
*T_UNIT 1 NS
*C_UNIT 1 PF
*R_UNIT 1 OHM
*L_UNIT 1 HENRY

*NAME_MAP
*3 clk
*4 ena
*5 rst_n
*6 ui_in[0]
*7 ui_in[1]
*8 ui_in[2]
*9 ui_in[3]
*10 ui_in[4]
*11 ui_in[5]
*12 ui_in[6]
*13 ui_in[7]
*14 uio_in[0]
*15 uio_in[1]
*16 uio_in[2]
*17 uio_in[3]
*18 uio_in[4]
*19 uio_in[5]
*20 uio_in[6]
*21 uio_in[7]
*22 net19
*23 net20
*24 net21
*25 net22
*26 net23
*27 net24
*28 net25
*29 net26
*30 uio_out[0]
*31 uio_out[1]
*32 uio_out[2]
*33 uio_out[3]
*34 uio_out[4]
*35 uio_out[5]
*36 uio_out[6]
*37 uio_out[7]
*38 uo_out[0]
*39 uo_out[1]
*40 uo_out[2]
*41 uo_out[3]
*42 uo_out[4]
*43 uo_out[5]
*44 uo_out[6]
*45 uo_out[7]
*46 _000_
*47 _001_
*48 _002_
*49 _003_
*50 _004_
*51 _005_
*52 _006_
*53 _007_
*54 _008_
*55 _009_
*56 _010_
*57 _011_
*58 _012_
*59 _013_
*60 _014_
*61 _015_
*62 _016_
*63 _017_
*64 _018_
*65 _019_
*66 _020_
*67 _021_
*68 _022_
*69 _023_
*70 _024_
*71 _025_
*72 _026_
*73 _027_
*74 _028_
*75 _029_
*76 _030_
*77 _031_
*78 _032_
*79 _033_
*80 _034_
*81 _035_
*82 _036_
*83 _037_
*84 _038_
*85 _039_
*86 _040_
*87 _041_
*88 _042_
*89 _043_
*90 _044_
*91 _045_
*92 _046_
*93 _047_
*94 _048_
*95 _049_
*96 _050_
*97 _051_
*98 _052_
*99 _053_
*100 _054_
*101 _055_
*102 _056_
*103 _057_
*104 _058_
*105 _059_
*106 _060_
*107 _061_
*108 _062_
*109 _063_
*110 _064_
*111 _065_
*112 _066_
*113 _067_
*114 _068_
*115 _069_
*116 _070_
*117 _071_
*118 _072_
*119 _073_
*120 _074_
*121 _075_
*122 _076_
*123 clknet_0_clk
*124 clknet_1_0__leaf_clk
*125 clknet_1_1__leaf_clk
*126 multi0\.adder16\.a
*127 multi0\.adder16\.b
*128 multi0\.adder17\.a
*129 multi0\.adder17\.b
*130 multi0\.adder18\.a
*131 multi0\.adder18\.b
*132 multi0\.prev_level\[0\]
*133 multi0\.prev_level\[1\]
*134 multi0\.prev_level\[2\]
*135 multi0\.prev_level\[3\]
*136 net1
*137 net10
*138 net11
*139 net12
*140 net13
*141 net14
*142 net15
*143 net16
*144 net17
*145 net18
*146 net2
*147 net27
*148 net28
*149 net29
*150 net3
*151 net30
*152 net31
*153 net32
*154 net33
*155 net34
*156 net4
*157 net5
*158 net6
*159 net7
*160 net8
*161 net9
*162 FILLER_0_0_109
*163 FILLER_0_0_113
*164 FILLER_0_0_125
*165 FILLER_0_0_137
*166 FILLER_0_0_141
*167 FILLER_0_0_15
*168 FILLER_0_0_153
*169 FILLER_0_0_165
*170 FILLER_0_0_169
*171 FILLER_0_0_181
*172 FILLER_0_0_193
*173 FILLER_0_0_197
*174 FILLER_0_0_209
*175 FILLER_0_0_221
*176 FILLER_0_0_225
*177 FILLER_0_0_237
*178 FILLER_0_0_249
*179 FILLER_0_0_253
*180 FILLER_0_0_265
*181 FILLER_0_0_27
*182 FILLER_0_0_277
*183 FILLER_0_0_281
*184 FILLER_0_0_29
*185 FILLER_0_0_293
*186 FILLER_0_0_3
*187 FILLER_0_0_305
*188 FILLER_0_0_309
*189 FILLER_0_0_321
*190 FILLER_0_0_333
*191 FILLER_0_0_337
*192 FILLER_0_0_349
*193 FILLER_0_0_41
*194 FILLER_0_0_53
*195 FILLER_0_0_57
*196 FILLER_0_0_69
*197 FILLER_0_0_81
*198 FILLER_0_0_85
*199 FILLER_0_0_97
*200 FILLER_0_10_109
*201 FILLER_0_10_121
*202 FILLER_0_10_133
*203 FILLER_0_10_139
*204 FILLER_0_10_141
*205 FILLER_0_10_15
*206 FILLER_0_10_153
*207 FILLER_0_10_165
*208 FILLER_0_10_177
*209 FILLER_0_10_189
*210 FILLER_0_10_195
*211 FILLER_0_10_197
*212 FILLER_0_10_209
*213 FILLER_0_10_221
*214 FILLER_0_10_233
*215 FILLER_0_10_245
*216 FILLER_0_10_251
*217 FILLER_0_10_253
*218 FILLER_0_10_265
*219 FILLER_0_10_27
*220 FILLER_0_10_277
*221 FILLER_0_10_289
*222 FILLER_0_10_29
*223 FILLER_0_10_3
*224 FILLER_0_10_301
*225 FILLER_0_10_307
*226 FILLER_0_10_309
*227 FILLER_0_10_321
*228 FILLER_0_10_333
*229 FILLER_0_10_345
*230 FILLER_0_10_41
*231 FILLER_0_10_53
*232 FILLER_0_10_65
*233 FILLER_0_10_77
*234 FILLER_0_10_83
*235 FILLER_0_10_85
*236 FILLER_0_10_97
*237 FILLER_0_11_105
*238 FILLER_0_11_111
*239 FILLER_0_11_113
*240 FILLER_0_11_125
*241 FILLER_0_11_137
*242 FILLER_0_11_149
*243 FILLER_0_11_15
*244 FILLER_0_11_161
*245 FILLER_0_11_167
*246 FILLER_0_11_169
*247 FILLER_0_11_181
*248 FILLER_0_11_193
*249 FILLER_0_11_205
*250 FILLER_0_11_217
*251 FILLER_0_11_223
*252 FILLER_0_11_225
*253 FILLER_0_11_237
*254 FILLER_0_11_249
*255 FILLER_0_11_261
*256 FILLER_0_11_27
*257 FILLER_0_11_273
*258 FILLER_0_11_279
*259 FILLER_0_11_281
*260 FILLER_0_11_293
*261 FILLER_0_11_3
*262 FILLER_0_11_305
*263 FILLER_0_11_317
*264 FILLER_0_11_329
*265 FILLER_0_11_335
*266 FILLER_0_11_337
*267 FILLER_0_11_349
*268 FILLER_0_11_39
*269 FILLER_0_11_51
*270 FILLER_0_11_55
*271 FILLER_0_11_57
*272 FILLER_0_11_69
*273 FILLER_0_11_81
*274 FILLER_0_11_93
*275 FILLER_0_12_109
*276 FILLER_0_12_121
*277 FILLER_0_12_133
*278 FILLER_0_12_139
*279 FILLER_0_12_141
*280 FILLER_0_12_15
*281 FILLER_0_12_153
*282 FILLER_0_12_165
*283 FILLER_0_12_177
*284 FILLER_0_12_189
*285 FILLER_0_12_195
*286 FILLER_0_12_197
*287 FILLER_0_12_209
*288 FILLER_0_12_221
*289 FILLER_0_12_233
*290 FILLER_0_12_245
*291 FILLER_0_12_251
*292 FILLER_0_12_253
*293 FILLER_0_12_265
*294 FILLER_0_12_27
*295 FILLER_0_12_277
*296 FILLER_0_12_289
*297 FILLER_0_12_29
*298 FILLER_0_12_3
*299 FILLER_0_12_301
*300 FILLER_0_12_307
*301 FILLER_0_12_309
*302 FILLER_0_12_321
*303 FILLER_0_12_333
*304 FILLER_0_12_345
*305 FILLER_0_12_41
*306 FILLER_0_12_53
*307 FILLER_0_12_65
*308 FILLER_0_12_77
*309 FILLER_0_12_83
*310 FILLER_0_12_85
*311 FILLER_0_12_97
*312 FILLER_0_13_105
*313 FILLER_0_13_111
*314 FILLER_0_13_113
*315 FILLER_0_13_125
*316 FILLER_0_13_137
*317 FILLER_0_13_149
*318 FILLER_0_13_15
*319 FILLER_0_13_161
*320 FILLER_0_13_167
*321 FILLER_0_13_169
*322 FILLER_0_13_181
*323 FILLER_0_13_193
*324 FILLER_0_13_205
*325 FILLER_0_13_217
*326 FILLER_0_13_223
*327 FILLER_0_13_225
*328 FILLER_0_13_237
*329 FILLER_0_13_249
*330 FILLER_0_13_261
*331 FILLER_0_13_27
*332 FILLER_0_13_273
*333 FILLER_0_13_279
*334 FILLER_0_13_281
*335 FILLER_0_13_293
*336 FILLER_0_13_3
*337 FILLER_0_13_305
*338 FILLER_0_13_317
*339 FILLER_0_13_329
*340 FILLER_0_13_335
*341 FILLER_0_13_337
*342 FILLER_0_13_349
*343 FILLER_0_13_39
*344 FILLER_0_13_51
*345 FILLER_0_13_55
*346 FILLER_0_13_57
*347 FILLER_0_13_69
*348 FILLER_0_13_81
*349 FILLER_0_13_93
*350 FILLER_0_14_109
*351 FILLER_0_14_121
*352 FILLER_0_14_133
*353 FILLER_0_14_139
*354 FILLER_0_14_141
*355 FILLER_0_14_15
*356 FILLER_0_14_153
*357 FILLER_0_14_165
*358 FILLER_0_14_177
*359 FILLER_0_14_189
*360 FILLER_0_14_195
*361 FILLER_0_14_197
*362 FILLER_0_14_209
*363 FILLER_0_14_221
*364 FILLER_0_14_233
*365 FILLER_0_14_245
*366 FILLER_0_14_251
*367 FILLER_0_14_253
*368 FILLER_0_14_265
*369 FILLER_0_14_27
*370 FILLER_0_14_277
*371 FILLER_0_14_289
*372 FILLER_0_14_29
*373 FILLER_0_14_3
*374 FILLER_0_14_301
*375 FILLER_0_14_307
*376 FILLER_0_14_309
*377 FILLER_0_14_321
*378 FILLER_0_14_333
*379 FILLER_0_14_345
*380 FILLER_0_14_41
*381 FILLER_0_14_53
*382 FILLER_0_14_65
*383 FILLER_0_14_77
*384 FILLER_0_14_83
*385 FILLER_0_14_85
*386 FILLER_0_14_97
*387 FILLER_0_15_105
*388 FILLER_0_15_111
*389 FILLER_0_15_113
*390 FILLER_0_15_125
*391 FILLER_0_15_137
*392 FILLER_0_15_149
*393 FILLER_0_15_15
*394 FILLER_0_15_161
*395 FILLER_0_15_167
*396 FILLER_0_15_169
*397 FILLER_0_15_181
*398 FILLER_0_15_193
*399 FILLER_0_15_205
*400 FILLER_0_15_217
*401 FILLER_0_15_223
*402 FILLER_0_15_225
*403 FILLER_0_15_237
*404 FILLER_0_15_249
*405 FILLER_0_15_261
*406 FILLER_0_15_27
*407 FILLER_0_15_273
*408 FILLER_0_15_279
*409 FILLER_0_15_281
*410 FILLER_0_15_293
*411 FILLER_0_15_3
*412 FILLER_0_15_305
*413 FILLER_0_15_317
*414 FILLER_0_15_329
*415 FILLER_0_15_335
*416 FILLER_0_15_337
*417 FILLER_0_15_349
*418 FILLER_0_15_39
*419 FILLER_0_15_51
*420 FILLER_0_15_55
*421 FILLER_0_15_57
*422 FILLER_0_15_69
*423 FILLER_0_15_81
*424 FILLER_0_15_93
*425 FILLER_0_16_109
*426 FILLER_0_16_121
*427 FILLER_0_16_133
*428 FILLER_0_16_139
*429 FILLER_0_16_141
*430 FILLER_0_16_15
*431 FILLER_0_16_153
*432 FILLER_0_16_165
*433 FILLER_0_16_177
*434 FILLER_0_16_189
*435 FILLER_0_16_195
*436 FILLER_0_16_197
*437 FILLER_0_16_209
*438 FILLER_0_16_221
*439 FILLER_0_16_233
*440 FILLER_0_16_245
*441 FILLER_0_16_251
*442 FILLER_0_16_253
*443 FILLER_0_16_265
*444 FILLER_0_16_27
*445 FILLER_0_16_277
*446 FILLER_0_16_289
*447 FILLER_0_16_29
*448 FILLER_0_16_3
*449 FILLER_0_16_301
*450 FILLER_0_16_307
*451 FILLER_0_16_309
*452 FILLER_0_16_321
*453 FILLER_0_16_333
*454 FILLER_0_16_345
*455 FILLER_0_16_41
*456 FILLER_0_16_53
*457 FILLER_0_16_65
*458 FILLER_0_16_77
*459 FILLER_0_16_83
*460 FILLER_0_16_85
*461 FILLER_0_16_97
*462 FILLER_0_17_105
*463 FILLER_0_17_111
*464 FILLER_0_17_113
*465 FILLER_0_17_125
*466 FILLER_0_17_137
*467 FILLER_0_17_149
*468 FILLER_0_17_15
*469 FILLER_0_17_161
*470 FILLER_0_17_167
*471 FILLER_0_17_169
*472 FILLER_0_17_181
*473 FILLER_0_17_193
*474 FILLER_0_17_205
*475 FILLER_0_17_217
*476 FILLER_0_17_223
*477 FILLER_0_17_225
*478 FILLER_0_17_237
*479 FILLER_0_17_249
*480 FILLER_0_17_261
*481 FILLER_0_17_27
*482 FILLER_0_17_273
*483 FILLER_0_17_279
*484 FILLER_0_17_281
*485 FILLER_0_17_293
*486 FILLER_0_17_3
*487 FILLER_0_17_305
*488 FILLER_0_17_317
*489 FILLER_0_17_329
*490 FILLER_0_17_335
*491 FILLER_0_17_337
*492 FILLER_0_17_349
*493 FILLER_0_17_39
*494 FILLER_0_17_51
*495 FILLER_0_17_55
*496 FILLER_0_17_57
*497 FILLER_0_17_69
*498 FILLER_0_17_81
*499 FILLER_0_17_93
*500 FILLER_0_18_109
*501 FILLER_0_18_121
*502 FILLER_0_18_133
*503 FILLER_0_18_139
*504 FILLER_0_18_141
*505 FILLER_0_18_15
*506 FILLER_0_18_153
*507 FILLER_0_18_165
*508 FILLER_0_18_177
*509 FILLER_0_18_189
*510 FILLER_0_18_195
*511 FILLER_0_18_197
*512 FILLER_0_18_209
*513 FILLER_0_18_221
*514 FILLER_0_18_233
*515 FILLER_0_18_245
*516 FILLER_0_18_251
*517 FILLER_0_18_253
*518 FILLER_0_18_265
*519 FILLER_0_18_27
*520 FILLER_0_18_277
*521 FILLER_0_18_289
*522 FILLER_0_18_29
*523 FILLER_0_18_3
*524 FILLER_0_18_301
*525 FILLER_0_18_307
*526 FILLER_0_18_309
*527 FILLER_0_18_321
*528 FILLER_0_18_333
*529 FILLER_0_18_345
*530 FILLER_0_18_41
*531 FILLER_0_18_53
*532 FILLER_0_18_65
*533 FILLER_0_18_77
*534 FILLER_0_18_83
*535 FILLER_0_18_85
*536 FILLER_0_18_97
*537 FILLER_0_19_105
*538 FILLER_0_19_111
*539 FILLER_0_19_113
*540 FILLER_0_19_125
*541 FILLER_0_19_137
*542 FILLER_0_19_149
*543 FILLER_0_19_15
*544 FILLER_0_19_161
*545 FILLER_0_19_167
*546 FILLER_0_19_169
*547 FILLER_0_19_181
*548 FILLER_0_19_193
*549 FILLER_0_19_205
*550 FILLER_0_19_217
*551 FILLER_0_19_223
*552 FILLER_0_19_225
*553 FILLER_0_19_237
*554 FILLER_0_19_249
*555 FILLER_0_19_261
*556 FILLER_0_19_27
*557 FILLER_0_19_273
*558 FILLER_0_19_279
*559 FILLER_0_19_281
*560 FILLER_0_19_293
*561 FILLER_0_19_3
*562 FILLER_0_19_305
*563 FILLER_0_19_317
*564 FILLER_0_19_329
*565 FILLER_0_19_335
*566 FILLER_0_19_337
*567 FILLER_0_19_349
*568 FILLER_0_19_39
*569 FILLER_0_19_51
*570 FILLER_0_19_55
*571 FILLER_0_19_57
*572 FILLER_0_19_69
*573 FILLER_0_19_81
*574 FILLER_0_19_93
*575 FILLER_0_1_105
*576 FILLER_0_1_111
*577 FILLER_0_1_113
*578 FILLER_0_1_125
*579 FILLER_0_1_137
*580 FILLER_0_1_149
*581 FILLER_0_1_15
*582 FILLER_0_1_161
*583 FILLER_0_1_167
*584 FILLER_0_1_169
*585 FILLER_0_1_181
*586 FILLER_0_1_193
*587 FILLER_0_1_205
*588 FILLER_0_1_217
*589 FILLER_0_1_223
*590 FILLER_0_1_225
*591 FILLER_0_1_237
*592 FILLER_0_1_249
*593 FILLER_0_1_261
*594 FILLER_0_1_27
*595 FILLER_0_1_273
*596 FILLER_0_1_279
*597 FILLER_0_1_281
*598 FILLER_0_1_293
*599 FILLER_0_1_3
*600 FILLER_0_1_305
*601 FILLER_0_1_317
*602 FILLER_0_1_329
*603 FILLER_0_1_335
*604 FILLER_0_1_337
*605 FILLER_0_1_349
*606 FILLER_0_1_39
*607 FILLER_0_1_51
*608 FILLER_0_1_55
*609 FILLER_0_1_57
*610 FILLER_0_1_69
*611 FILLER_0_1_81
*612 FILLER_0_1_93
*613 FILLER_0_20_109
*614 FILLER_0_20_121
*615 FILLER_0_20_133
*616 FILLER_0_20_139
*617 FILLER_0_20_141
*618 FILLER_0_20_15
*619 FILLER_0_20_153
*620 FILLER_0_20_165
*621 FILLER_0_20_177
*622 FILLER_0_20_189
*623 FILLER_0_20_195
*624 FILLER_0_20_197
*625 FILLER_0_20_209
*626 FILLER_0_20_221
*627 FILLER_0_20_233
*628 FILLER_0_20_245
*629 FILLER_0_20_251
*630 FILLER_0_20_253
*631 FILLER_0_20_265
*632 FILLER_0_20_27
*633 FILLER_0_20_277
*634 FILLER_0_20_289
*635 FILLER_0_20_29
*636 FILLER_0_20_3
*637 FILLER_0_20_301
*638 FILLER_0_20_307
*639 FILLER_0_20_309
*640 FILLER_0_20_321
*641 FILLER_0_20_333
*642 FILLER_0_20_345
*643 FILLER_0_20_41
*644 FILLER_0_20_53
*645 FILLER_0_20_65
*646 FILLER_0_20_77
*647 FILLER_0_20_83
*648 FILLER_0_20_85
*649 FILLER_0_20_97
*650 FILLER_0_21_105
*651 FILLER_0_21_111
*652 FILLER_0_21_113
*653 FILLER_0_21_125
*654 FILLER_0_21_137
*655 FILLER_0_21_149
*656 FILLER_0_21_15
*657 FILLER_0_21_161
*658 FILLER_0_21_167
*659 FILLER_0_21_169
*660 FILLER_0_21_181
*661 FILLER_0_21_193
*662 FILLER_0_21_205
*663 FILLER_0_21_217
*664 FILLER_0_21_223
*665 FILLER_0_21_225
*666 FILLER_0_21_237
*667 FILLER_0_21_249
*668 FILLER_0_21_261
*669 FILLER_0_21_27
*670 FILLER_0_21_273
*671 FILLER_0_21_279
*672 FILLER_0_21_281
*673 FILLER_0_21_293
*674 FILLER_0_21_3
*675 FILLER_0_21_305
*676 FILLER_0_21_317
*677 FILLER_0_21_329
*678 FILLER_0_21_335
*679 FILLER_0_21_337
*680 FILLER_0_21_349
*681 FILLER_0_21_39
*682 FILLER_0_21_51
*683 FILLER_0_21_55
*684 FILLER_0_21_57
*685 FILLER_0_21_69
*686 FILLER_0_21_81
*687 FILLER_0_21_93
*688 FILLER_0_22_109
*689 FILLER_0_22_121
*690 FILLER_0_22_133
*691 FILLER_0_22_139
*692 FILLER_0_22_141
*693 FILLER_0_22_15
*694 FILLER_0_22_153
*695 FILLER_0_22_165
*696 FILLER_0_22_177
*697 FILLER_0_22_189
*698 FILLER_0_22_195
*699 FILLER_0_22_197
*700 FILLER_0_22_209
*701 FILLER_0_22_221
*702 FILLER_0_22_233
*703 FILLER_0_22_245
*704 FILLER_0_22_251
*705 FILLER_0_22_253
*706 FILLER_0_22_265
*707 FILLER_0_22_27
*708 FILLER_0_22_277
*709 FILLER_0_22_289
*710 FILLER_0_22_29
*711 FILLER_0_22_3
*712 FILLER_0_22_301
*713 FILLER_0_22_307
*714 FILLER_0_22_309
*715 FILLER_0_22_321
*716 FILLER_0_22_333
*717 FILLER_0_22_345
*718 FILLER_0_22_41
*719 FILLER_0_22_53
*720 FILLER_0_22_65
*721 FILLER_0_22_77
*722 FILLER_0_22_83
*723 FILLER_0_22_85
*724 FILLER_0_22_97
*725 FILLER_0_23_105
*726 FILLER_0_23_111
*727 FILLER_0_23_113
*728 FILLER_0_23_125
*729 FILLER_0_23_137
*730 FILLER_0_23_149
*731 FILLER_0_23_15
*732 FILLER_0_23_161
*733 FILLER_0_23_167
*734 FILLER_0_23_169
*735 FILLER_0_23_181
*736 FILLER_0_23_193
*737 FILLER_0_23_205
*738 FILLER_0_23_217
*739 FILLER_0_23_223
*740 FILLER_0_23_225
*741 FILLER_0_23_237
*742 FILLER_0_23_249
*743 FILLER_0_23_261
*744 FILLER_0_23_27
*745 FILLER_0_23_273
*746 FILLER_0_23_279
*747 FILLER_0_23_281
*748 FILLER_0_23_293
*749 FILLER_0_23_3
*750 FILLER_0_23_305
*751 FILLER_0_23_317
*752 FILLER_0_23_329
*753 FILLER_0_23_335
*754 FILLER_0_23_337
*755 FILLER_0_23_349
*756 FILLER_0_23_39
*757 FILLER_0_23_51
*758 FILLER_0_23_55
*759 FILLER_0_23_57
*760 FILLER_0_23_69
*761 FILLER_0_23_81
*762 FILLER_0_23_93
*763 FILLER_0_24_109
*764 FILLER_0_24_121
*765 FILLER_0_24_133
*766 FILLER_0_24_139
*767 FILLER_0_24_141
*768 FILLER_0_24_15
*769 FILLER_0_24_153
*770 FILLER_0_24_165
*771 FILLER_0_24_177
*772 FILLER_0_24_189
*773 FILLER_0_24_195
*774 FILLER_0_24_197
*775 FILLER_0_24_209
*776 FILLER_0_24_221
*777 FILLER_0_24_233
*778 FILLER_0_24_245
*779 FILLER_0_24_251
*780 FILLER_0_24_253
*781 FILLER_0_24_265
*782 FILLER_0_24_27
*783 FILLER_0_24_277
*784 FILLER_0_24_289
*785 FILLER_0_24_29
*786 FILLER_0_24_3
*787 FILLER_0_24_301
*788 FILLER_0_24_307
*789 FILLER_0_24_309
*790 FILLER_0_24_321
*791 FILLER_0_24_333
*792 FILLER_0_24_345
*793 FILLER_0_24_41
*794 FILLER_0_24_53
*795 FILLER_0_24_65
*796 FILLER_0_24_77
*797 FILLER_0_24_83
*798 FILLER_0_24_85
*799 FILLER_0_24_97
*800 FILLER_0_25_105
*801 FILLER_0_25_111
*802 FILLER_0_25_113
*803 FILLER_0_25_125
*804 FILLER_0_25_137
*805 FILLER_0_25_149
*806 FILLER_0_25_15
*807 FILLER_0_25_161
*808 FILLER_0_25_167
*809 FILLER_0_25_169
*810 FILLER_0_25_181
*811 FILLER_0_25_193
*812 FILLER_0_25_205
*813 FILLER_0_25_217
*814 FILLER_0_25_223
*815 FILLER_0_25_225
*816 FILLER_0_25_237
*817 FILLER_0_25_249
*818 FILLER_0_25_261
*819 FILLER_0_25_27
*820 FILLER_0_25_273
*821 FILLER_0_25_279
*822 FILLER_0_25_281
*823 FILLER_0_25_293
*824 FILLER_0_25_3
*825 FILLER_0_25_305
*826 FILLER_0_25_317
*827 FILLER_0_25_329
*828 FILLER_0_25_335
*829 FILLER_0_25_337
*830 FILLER_0_25_349
*831 FILLER_0_25_39
*832 FILLER_0_25_51
*833 FILLER_0_25_55
*834 FILLER_0_25_57
*835 FILLER_0_25_69
*836 FILLER_0_25_81
*837 FILLER_0_25_93
*838 FILLER_0_26_109
*839 FILLER_0_26_121
*840 FILLER_0_26_133
*841 FILLER_0_26_139
*842 FILLER_0_26_141
*843 FILLER_0_26_15
*844 FILLER_0_26_153
*845 FILLER_0_26_165
*846 FILLER_0_26_177
*847 FILLER_0_26_189
*848 FILLER_0_26_195
*849 FILLER_0_26_197
*850 FILLER_0_26_209
*851 FILLER_0_26_221
*852 FILLER_0_26_233
*853 FILLER_0_26_245
*854 FILLER_0_26_251
*855 FILLER_0_26_253
*856 FILLER_0_26_265
*857 FILLER_0_26_27
*858 FILLER_0_26_277
*859 FILLER_0_26_289
*860 FILLER_0_26_29
*861 FILLER_0_26_3
*862 FILLER_0_26_301
*863 FILLER_0_26_307
*864 FILLER_0_26_309
*865 FILLER_0_26_321
*866 FILLER_0_26_333
*867 FILLER_0_26_345
*868 FILLER_0_26_41
*869 FILLER_0_26_53
*870 FILLER_0_26_65
*871 FILLER_0_26_77
*872 FILLER_0_26_83
*873 FILLER_0_26_85
*874 FILLER_0_26_97
*875 FILLER_0_27_105
*876 FILLER_0_27_111
*877 FILLER_0_27_113
*878 FILLER_0_27_125
*879 FILLER_0_27_137
*880 FILLER_0_27_149
*881 FILLER_0_27_15
*882 FILLER_0_27_161
*883 FILLER_0_27_167
*884 FILLER_0_27_169
*885 FILLER_0_27_181
*886 FILLER_0_27_193
*887 FILLER_0_27_205
*888 FILLER_0_27_217
*889 FILLER_0_27_223
*890 FILLER_0_27_225
*891 FILLER_0_27_237
*892 FILLER_0_27_249
*893 FILLER_0_27_261
*894 FILLER_0_27_27
*895 FILLER_0_27_273
*896 FILLER_0_27_279
*897 FILLER_0_27_281
*898 FILLER_0_27_293
*899 FILLER_0_27_3
*900 FILLER_0_27_305
*901 FILLER_0_27_317
*902 FILLER_0_27_329
*903 FILLER_0_27_335
*904 FILLER_0_27_337
*905 FILLER_0_27_349
*906 FILLER_0_27_39
*907 FILLER_0_27_51
*908 FILLER_0_27_55
*909 FILLER_0_27_57
*910 FILLER_0_27_69
*911 FILLER_0_27_81
*912 FILLER_0_27_93
*913 FILLER_0_28_109
*914 FILLER_0_28_121
*915 FILLER_0_28_133
*916 FILLER_0_28_139
*917 FILLER_0_28_141
*918 FILLER_0_28_15
*919 FILLER_0_28_153
*920 FILLER_0_28_165
*921 FILLER_0_28_177
*922 FILLER_0_28_189
*923 FILLER_0_28_195
*924 FILLER_0_28_197
*925 FILLER_0_28_209
*926 FILLER_0_28_221
*927 FILLER_0_28_233
*928 FILLER_0_28_253
*929 FILLER_0_28_265
*930 FILLER_0_28_27
*931 FILLER_0_28_277
*932 FILLER_0_28_289
*933 FILLER_0_28_29
*934 FILLER_0_28_3
*935 FILLER_0_28_301
*936 FILLER_0_28_307
*937 FILLER_0_28_309
*938 FILLER_0_28_321
*939 FILLER_0_28_333
*940 FILLER_0_28_345
*941 FILLER_0_28_41
*942 FILLER_0_28_53
*943 FILLER_0_28_65
*944 FILLER_0_28_77
*945 FILLER_0_28_83
*946 FILLER_0_28_85
*947 FILLER_0_28_97
*948 FILLER_0_29_105
*949 FILLER_0_29_111
*950 FILLER_0_29_113
*951 FILLER_0_29_125
*952 FILLER_0_29_137
*953 FILLER_0_29_149
*954 FILLER_0_29_15
*955 FILLER_0_29_161
*956 FILLER_0_29_167
*957 FILLER_0_29_169
*958 FILLER_0_29_181
*959 FILLER_0_29_193
*960 FILLER_0_29_205
*961 FILLER_0_29_217
*962 FILLER_0_29_223
*963 FILLER_0_29_225
*964 FILLER_0_29_230
*965 FILLER_0_29_251
*966 FILLER_0_29_263
*967 FILLER_0_29_27
*968 FILLER_0_29_275
*969 FILLER_0_29_279
*970 FILLER_0_29_281
*971 FILLER_0_29_293
*972 FILLER_0_29_3
*973 FILLER_0_29_305
*974 FILLER_0_29_317
*975 FILLER_0_29_329
*976 FILLER_0_29_335
*977 FILLER_0_29_337
*978 FILLER_0_29_349
*979 FILLER_0_29_39
*980 FILLER_0_29_51
*981 FILLER_0_29_55
*982 FILLER_0_29_57
*983 FILLER_0_29_69
*984 FILLER_0_29_81
*985 FILLER_0_29_93
*986 FILLER_0_2_109
*987 FILLER_0_2_121
*988 FILLER_0_2_133
*989 FILLER_0_2_139
*990 FILLER_0_2_141
*991 FILLER_0_2_15
*992 FILLER_0_2_153
*993 FILLER_0_2_165
*994 FILLER_0_2_177
*995 FILLER_0_2_189
*996 FILLER_0_2_195
*997 FILLER_0_2_197
*998 FILLER_0_2_209
*999 FILLER_0_2_221
*1000 FILLER_0_2_233
*1001 FILLER_0_2_245
*1002 FILLER_0_2_251
*1003 FILLER_0_2_253
*1004 FILLER_0_2_265
*1005 FILLER_0_2_27
*1006 FILLER_0_2_277
*1007 FILLER_0_2_289
*1008 FILLER_0_2_29
*1009 FILLER_0_2_3
*1010 FILLER_0_2_301
*1011 FILLER_0_2_307
*1012 FILLER_0_2_309
*1013 FILLER_0_2_321
*1014 FILLER_0_2_333
*1015 FILLER_0_2_345
*1016 FILLER_0_2_41
*1017 FILLER_0_2_53
*1018 FILLER_0_2_65
*1019 FILLER_0_2_77
*1020 FILLER_0_2_83
*1021 FILLER_0_2_85
*1022 FILLER_0_2_97
*1023 FILLER_0_30_109
*1024 FILLER_0_30_121
*1025 FILLER_0_30_133
*1026 FILLER_0_30_139
*1027 FILLER_0_30_141
*1028 FILLER_0_30_15
*1029 FILLER_0_30_153
*1030 FILLER_0_30_165
*1031 FILLER_0_30_177
*1032 FILLER_0_30_183
*1033 FILLER_0_30_191
*1034 FILLER_0_30_195
*1035 FILLER_0_30_197
*1036 FILLER_0_30_237
*1037 FILLER_0_30_249
*1038 FILLER_0_30_253
*1039 FILLER_0_30_265
*1040 FILLER_0_30_27
*1041 FILLER_0_30_29
*1042 FILLER_0_30_291
*1043 FILLER_0_30_3
*1044 FILLER_0_30_303
*1045 FILLER_0_30_307
*1046 FILLER_0_30_309
*1047 FILLER_0_30_321
*1048 FILLER_0_30_333
*1049 FILLER_0_30_345
*1050 FILLER_0_30_41
*1051 FILLER_0_30_53
*1052 FILLER_0_30_65
*1053 FILLER_0_30_77
*1054 FILLER_0_30_83
*1055 FILLER_0_30_85
*1056 FILLER_0_30_97
*1057 FILLER_0_31_105
*1058 FILLER_0_31_111
*1059 FILLER_0_31_113
*1060 FILLER_0_31_125
*1061 FILLER_0_31_137
*1062 FILLER_0_31_149
*1063 FILLER_0_31_15
*1064 FILLER_0_31_161
*1065 FILLER_0_31_167
*1066 FILLER_0_31_169
*1067 FILLER_0_31_181
*1068 FILLER_0_31_204
*1069 FILLER_0_31_210
*1070 FILLER_0_31_217
*1071 FILLER_0_31_223
*1072 FILLER_0_31_225
*1073 FILLER_0_31_237
*1074 FILLER_0_31_249
*1075 FILLER_0_31_262
*1076 FILLER_0_31_27
*1077 FILLER_0_31_274
*1078 FILLER_0_31_286
*1079 FILLER_0_31_298
*1080 FILLER_0_31_3
*1081 FILLER_0_31_310
*1082 FILLER_0_31_322
*1083 FILLER_0_31_334
*1084 FILLER_0_31_337
*1085 FILLER_0_31_349
*1086 FILLER_0_31_39
*1087 FILLER_0_31_51
*1088 FILLER_0_31_55
*1089 FILLER_0_31_57
*1090 FILLER_0_31_69
*1091 FILLER_0_31_81
*1092 FILLER_0_31_93
*1093 FILLER_0_32_109
*1094 FILLER_0_32_121
*1095 FILLER_0_32_133
*1096 FILLER_0_32_139
*1097 FILLER_0_32_141
*1098 FILLER_0_32_15
*1099 FILLER_0_32_153
*1100 FILLER_0_32_165
*1101 FILLER_0_32_184
*1102 FILLER_0_32_193
*1103 FILLER_0_32_210
*1104 FILLER_0_32_236
*1105 FILLER_0_32_250
*1106 FILLER_0_32_260
*1107 FILLER_0_32_27
*1108 FILLER_0_32_272
*1109 FILLER_0_32_287
*1110 FILLER_0_32_29
*1111 FILLER_0_32_3
*1112 FILLER_0_32_309
*1113 FILLER_0_32_321
*1114 FILLER_0_32_333
*1115 FILLER_0_32_345
*1116 FILLER_0_32_41
*1117 FILLER_0_32_53
*1118 FILLER_0_32_65
*1119 FILLER_0_32_77
*1120 FILLER_0_32_83
*1121 FILLER_0_32_85
*1122 FILLER_0_32_97
*1123 FILLER_0_33_105
*1124 FILLER_0_33_111
*1125 FILLER_0_33_113
*1126 FILLER_0_33_125
*1127 FILLER_0_33_137
*1128 FILLER_0_33_149
*1129 FILLER_0_33_15
*1130 FILLER_0_33_169
*1131 FILLER_0_33_181
*1132 FILLER_0_33_206
*1133 FILLER_0_33_223
*1134 FILLER_0_33_225
*1135 FILLER_0_33_233
*1136 FILLER_0_33_238
*1137 FILLER_0_33_250
*1138 FILLER_0_33_263
*1139 FILLER_0_33_269
*1140 FILLER_0_33_27
*1141 FILLER_0_33_277
*1142 FILLER_0_33_284
*1143 FILLER_0_33_292
*1144 FILLER_0_33_3
*1145 FILLER_0_33_307
*1146 FILLER_0_33_319
*1147 FILLER_0_33_331
*1148 FILLER_0_33_335
*1149 FILLER_0_33_337
*1150 FILLER_0_33_349
*1151 FILLER_0_33_39
*1152 FILLER_0_33_51
*1153 FILLER_0_33_55
*1154 FILLER_0_33_57
*1155 FILLER_0_33_69
*1156 FILLER_0_33_81
*1157 FILLER_0_33_93
*1158 FILLER_0_34_109
*1159 FILLER_0_34_121
*1160 FILLER_0_34_133
*1161 FILLER_0_34_139
*1162 FILLER_0_34_141
*1163 FILLER_0_34_15
*1164 FILLER_0_34_153
*1165 FILLER_0_34_165
*1166 FILLER_0_34_191
*1167 FILLER_0_34_195
*1168 FILLER_0_34_207
*1169 FILLER_0_34_243
*1170 FILLER_0_34_253
*1171 FILLER_0_34_266
*1172 FILLER_0_34_27
*1173 FILLER_0_34_270
*1174 FILLER_0_34_279
*1175 FILLER_0_34_29
*1176 FILLER_0_34_291
*1177 FILLER_0_34_3
*1178 FILLER_0_34_300
*1179 FILLER_0_34_309
*1180 FILLER_0_34_321
*1181 FILLER_0_34_333
*1182 FILLER_0_34_345
*1183 FILLER_0_34_41
*1184 FILLER_0_34_53
*1185 FILLER_0_34_65
*1186 FILLER_0_34_77
*1187 FILLER_0_34_83
*1188 FILLER_0_34_85
*1189 FILLER_0_34_97
*1190 FILLER_0_35_105
*1191 FILLER_0_35_111
*1192 FILLER_0_35_113
*1193 FILLER_0_35_125
*1194 FILLER_0_35_137
*1195 FILLER_0_35_149
*1196 FILLER_0_35_15
*1197 FILLER_0_35_194
*1198 FILLER_0_35_221
*1199 FILLER_0_35_225
*1200 FILLER_0_35_251
*1201 FILLER_0_35_262
*1202 FILLER_0_35_27
*1203 FILLER_0_35_291
*1204 FILLER_0_35_3
*1205 FILLER_0_35_310
*1206 FILLER_0_35_322
*1207 FILLER_0_35_334
*1208 FILLER_0_35_337
*1209 FILLER_0_35_349
*1210 FILLER_0_35_39
*1211 FILLER_0_35_51
*1212 FILLER_0_35_55
*1213 FILLER_0_35_57
*1214 FILLER_0_35_69
*1215 FILLER_0_35_81
*1216 FILLER_0_35_93
*1217 FILLER_0_36_109
*1218 FILLER_0_36_121
*1219 FILLER_0_36_133
*1220 FILLER_0_36_139
*1221 FILLER_0_36_141
*1222 FILLER_0_36_15
*1223 FILLER_0_36_164
*1224 FILLER_0_36_172
*1225 FILLER_0_36_192
*1226 FILLER_0_36_197
*1227 FILLER_0_36_201
*1228 FILLER_0_36_205
*1229 FILLER_0_36_213
*1230 FILLER_0_36_230
*1231 FILLER_0_36_234
*1232 FILLER_0_36_256
*1233 FILLER_0_36_269
*1234 FILLER_0_36_27
*1235 FILLER_0_36_281
*1236 FILLER_0_36_29
*1237 FILLER_0_36_293
*1238 FILLER_0_36_297
*1239 FILLER_0_36_3
*1240 FILLER_0_36_305
*1241 FILLER_0_36_329
*1242 FILLER_0_36_341
*1243 FILLER_0_36_349
*1244 FILLER_0_36_41
*1245 FILLER_0_36_53
*1246 FILLER_0_36_65
*1247 FILLER_0_36_77
*1248 FILLER_0_36_83
*1249 FILLER_0_36_85
*1250 FILLER_0_36_97
*1251 FILLER_0_37_105
*1252 FILLER_0_37_111
*1253 FILLER_0_37_113
*1254 FILLER_0_37_125
*1255 FILLER_0_37_137
*1256 FILLER_0_37_149
*1257 FILLER_0_37_15
*1258 FILLER_0_37_161
*1259 FILLER_0_37_167
*1260 FILLER_0_37_169
*1261 FILLER_0_37_173
*1262 FILLER_0_37_202
*1263 FILLER_0_37_208
*1264 FILLER_0_37_212
*1265 FILLER_0_37_243
*1266 FILLER_0_37_261
*1267 FILLER_0_37_27
*1268 FILLER_0_37_279
*1269 FILLER_0_37_3
*1270 FILLER_0_37_302
*1271 FILLER_0_37_320
*1272 FILLER_0_37_332
*1273 FILLER_0_37_337
*1274 FILLER_0_37_349
*1275 FILLER_0_37_39
*1276 FILLER_0_37_51
*1277 FILLER_0_37_55
*1278 FILLER_0_37_57
*1279 FILLER_0_37_69
*1280 FILLER_0_37_81
*1281 FILLER_0_37_93
*1282 FILLER_0_38_104
*1283 FILLER_0_38_110
*1284 FILLER_0_38_119
*1285 FILLER_0_38_125
*1286 FILLER_0_38_141
*1287 FILLER_0_38_149
*1288 FILLER_0_38_15
*1289 FILLER_0_38_154
*1290 FILLER_0_38_159
*1291 FILLER_0_38_167
*1292 FILLER_0_38_186
*1293 FILLER_0_38_193
*1294 FILLER_0_38_197
*1295 FILLER_0_38_201
*1296 FILLER_0_38_222
*1297 FILLER_0_38_231
*1298 FILLER_0_38_261
*1299 FILLER_0_38_267
*1300 FILLER_0_38_27
*1301 FILLER_0_38_285
*1302 FILLER_0_38_29
*1303 FILLER_0_38_295
*1304 FILLER_0_38_3
*1305 FILLER_0_38_313
*1306 FILLER_0_38_323
*1307 FILLER_0_38_335
*1308 FILLER_0_38_337
*1309 FILLER_0_38_349
*1310 FILLER_0_38_41
*1311 FILLER_0_38_53
*1312 FILLER_0_38_57
*1313 FILLER_0_38_68
*1314 FILLER_0_38_74
*1315 FILLER_0_38_80
*1316 FILLER_0_38_88
*1317 FILLER_0_38_92
*1318 FILLER_0_38_98
*1319 FILLER_0_3_105
*1320 FILLER_0_3_111
*1321 FILLER_0_3_113
*1322 FILLER_0_3_125
*1323 FILLER_0_3_137
*1324 FILLER_0_3_149
*1325 FILLER_0_3_15
*1326 FILLER_0_3_161
*1327 FILLER_0_3_167
*1328 FILLER_0_3_169
*1329 FILLER_0_3_181
*1330 FILLER_0_3_193
*1331 FILLER_0_3_205
*1332 FILLER_0_3_217
*1333 FILLER_0_3_223
*1334 FILLER_0_3_225
*1335 FILLER_0_3_237
*1336 FILLER_0_3_249
*1337 FILLER_0_3_261
*1338 FILLER_0_3_27
*1339 FILLER_0_3_273
*1340 FILLER_0_3_279
*1341 FILLER_0_3_281
*1342 FILLER_0_3_293
*1343 FILLER_0_3_3
*1344 FILLER_0_3_305
*1345 FILLER_0_3_317
*1346 FILLER_0_3_329
*1347 FILLER_0_3_335
*1348 FILLER_0_3_337
*1349 FILLER_0_3_349
*1350 FILLER_0_3_39
*1351 FILLER_0_3_51
*1352 FILLER_0_3_55
*1353 FILLER_0_3_57
*1354 FILLER_0_3_69
*1355 FILLER_0_3_81
*1356 FILLER_0_3_93
*1357 FILLER_0_4_109
*1358 FILLER_0_4_121
*1359 FILLER_0_4_133
*1360 FILLER_0_4_139
*1361 FILLER_0_4_141
*1362 FILLER_0_4_15
*1363 FILLER_0_4_153
*1364 FILLER_0_4_165
*1365 FILLER_0_4_177
*1366 FILLER_0_4_189
*1367 FILLER_0_4_195
*1368 FILLER_0_4_197
*1369 FILLER_0_4_209
*1370 FILLER_0_4_221
*1371 FILLER_0_4_233
*1372 FILLER_0_4_245
*1373 FILLER_0_4_251
*1374 FILLER_0_4_253
*1375 FILLER_0_4_265
*1376 FILLER_0_4_27
*1377 FILLER_0_4_277
*1378 FILLER_0_4_289
*1379 FILLER_0_4_29
*1380 FILLER_0_4_3
*1381 FILLER_0_4_301
*1382 FILLER_0_4_307
*1383 FILLER_0_4_309
*1384 FILLER_0_4_321
*1385 FILLER_0_4_333
*1386 FILLER_0_4_345
*1387 FILLER_0_4_41
*1388 FILLER_0_4_53
*1389 FILLER_0_4_65
*1390 FILLER_0_4_77
*1391 FILLER_0_4_83
*1392 FILLER_0_4_85
*1393 FILLER_0_4_97
*1394 FILLER_0_5_105
*1395 FILLER_0_5_111
*1396 FILLER_0_5_113
*1397 FILLER_0_5_125
*1398 FILLER_0_5_137
*1399 FILLER_0_5_149
*1400 FILLER_0_5_15
*1401 FILLER_0_5_161
*1402 FILLER_0_5_167
*1403 FILLER_0_5_169
*1404 FILLER_0_5_181
*1405 FILLER_0_5_193
*1406 FILLER_0_5_205
*1407 FILLER_0_5_217
*1408 FILLER_0_5_223
*1409 FILLER_0_5_225
*1410 FILLER_0_5_237
*1411 FILLER_0_5_249
*1412 FILLER_0_5_261
*1413 FILLER_0_5_27
*1414 FILLER_0_5_273
*1415 FILLER_0_5_279
*1416 FILLER_0_5_281
*1417 FILLER_0_5_293
*1418 FILLER_0_5_3
*1419 FILLER_0_5_305
*1420 FILLER_0_5_317
*1421 FILLER_0_5_329
*1422 FILLER_0_5_335
*1423 FILLER_0_5_337
*1424 FILLER_0_5_349
*1425 FILLER_0_5_39
*1426 FILLER_0_5_51
*1427 FILLER_0_5_55
*1428 FILLER_0_5_57
*1429 FILLER_0_5_69
*1430 FILLER_0_5_81
*1431 FILLER_0_5_93
*1432 FILLER_0_6_109
*1433 FILLER_0_6_121
*1434 FILLER_0_6_133
*1435 FILLER_0_6_139
*1436 FILLER_0_6_141
*1437 FILLER_0_6_15
*1438 FILLER_0_6_153
*1439 FILLER_0_6_165
*1440 FILLER_0_6_177
*1441 FILLER_0_6_189
*1442 FILLER_0_6_195
*1443 FILLER_0_6_197
*1444 FILLER_0_6_209
*1445 FILLER_0_6_221
*1446 FILLER_0_6_233
*1447 FILLER_0_6_245
*1448 FILLER_0_6_251
*1449 FILLER_0_6_253
*1450 FILLER_0_6_265
*1451 FILLER_0_6_27
*1452 FILLER_0_6_277
*1453 FILLER_0_6_289
*1454 FILLER_0_6_29
*1455 FILLER_0_6_3
*1456 FILLER_0_6_301
*1457 FILLER_0_6_307
*1458 FILLER_0_6_309
*1459 FILLER_0_6_321
*1460 FILLER_0_6_333
*1461 FILLER_0_6_345
*1462 FILLER_0_6_41
*1463 FILLER_0_6_53
*1464 FILLER_0_6_65
*1465 FILLER_0_6_77
*1466 FILLER_0_6_83
*1467 FILLER_0_6_85
*1468 FILLER_0_6_97
*1469 FILLER_0_7_105
*1470 FILLER_0_7_111
*1471 FILLER_0_7_113
*1472 FILLER_0_7_125
*1473 FILLER_0_7_137
*1474 FILLER_0_7_149
*1475 FILLER_0_7_15
*1476 FILLER_0_7_161
*1477 FILLER_0_7_167
*1478 FILLER_0_7_169
*1479 FILLER_0_7_181
*1480 FILLER_0_7_193
*1481 FILLER_0_7_205
*1482 FILLER_0_7_217
*1483 FILLER_0_7_223
*1484 FILLER_0_7_225
*1485 FILLER_0_7_237
*1486 FILLER_0_7_249
*1487 FILLER_0_7_261
*1488 FILLER_0_7_27
*1489 FILLER_0_7_273
*1490 FILLER_0_7_279
*1491 FILLER_0_7_281