*SPEF "ieee 1481-1999"
*DESIGN "tt_um_wokwi_380416361853146113"
*DATE "11:11:11 Fri 11 11, 1111"
*VENDOR "OpenRCX"
*PROGRAM "Parallel Extraction"
*VERSION "1.0"
*DESIGN_FLOW "NAME_SCOPE LOCAL" "PIN_CAP NONE"
*DIVIDER /
*DELIMITER :
*BUS_DELIMITER []
*T_UNIT 1 NS
*C_UNIT 1 PF
*R_UNIT 1 OHM
*L_UNIT 1 HENRY

*NAME_MAP
*3 clk
*4 ena
*5 rst_n
*6 ui_in[0]
*7 ui_in[1]
*8 ui_in[2]
*9 ui_in[3]
*10 ui_in[4]
*11 ui_in[5]
*12 ui_in[6]
*13 ui_in[7]
*14 uio_in[0]
*15 uio_in[1]
*16 uio_in[2]
*17 uio_in[3]
*18 uio_in[4]
*19 uio_in[5]
*20 uio_in[6]
*21 uio_in[7]
*22 net8
*23 net9
*24 net10
*25 net11
*26 net12
*27 net13
*28 net14
*29 net15
*30 net16
*31 net17
*32 net18
*33 net19
*34 net20
*35 net21
*36 net22
*37 net23
*38 net24
*39 uo_out[1]
*40 uo_out[2]
*41 uo_out[3]
*42 uo_out[4]
*43 uo_out[5]
*44 uo_out[6]
*45 uo_out[7]
*46 net1
*47 net2
*48 net3
*49 net4
*50 net5
*51 net6
*52 net7
*53 not2\.out
*54 not3\.out
*55 not4\.out
*56 FILLER_0_0_109
*57 FILLER_0_0_113
*58 FILLER_0_0_125
*59 FILLER_0_0_137
*60 FILLER_0_0_141
*61 FILLER_0_0_15
*62 FILLER_0_0_153
*63 FILLER_0_0_165
*64 FILLER_0_0_169
*65 FILLER_0_0_181
*66 FILLER_0_0_193
*67 FILLER_0_0_197
*68 FILLER_0_0_209
*69 FILLER_0_0_221
*70 FILLER_0_0_225
*71 FILLER_0_0_237
*72 FILLER_0_0_249
*73 FILLER_0_0_253
*74 FILLER_0_0_265
*75 FILLER_0_0_27
*76 FILLER_0_0_277
*77 FILLER_0_0_281
*78 FILLER_0_0_29
*79 FILLER_0_0_293
*80 FILLER_0_0_3
*81 FILLER_0_0_305
*82 FILLER_0_0_309
*83 FILLER_0_0_321
*84 FILLER_0_0_333
*85 FILLER_0_0_337
*86 FILLER_0_0_349
*87 FILLER_0_0_41
*88 FILLER_0_0_53
*89 FILLER_0_0_57
*90 FILLER_0_0_69
*91 FILLER_0_0_81
*92 FILLER_0_0_85
*93 FILLER_0_0_97
*94 FILLER_0_10_109
*95 FILLER_0_10_121
*96 FILLER_0_10_133
*97 FILLER_0_10_139
*98 FILLER_0_10_141
*99 FILLER_0_10_15
*100 FILLER_0_10_153
*101 FILLER_0_10_165
*102 FILLER_0_10_177
*103 FILLER_0_10_189
*104 FILLER_0_10_195
*105 FILLER_0_10_197
*106 FILLER_0_10_209
*107 FILLER_0_10_221
*108 FILLER_0_10_233
*109 FILLER_0_10_245
*110 FILLER_0_10_251
*111 FILLER_0_10_253
*112 FILLER_0_10_265
*113 FILLER_0_10_27
*114 FILLER_0_10_277
*115 FILLER_0_10_289
*116 FILLER_0_10_29
*117 FILLER_0_10_3
*118 FILLER_0_10_301
*119 FILLER_0_10_307
*120 FILLER_0_10_309
*121 FILLER_0_10_321
*122 FILLER_0_10_333
*123 FILLER_0_10_345
*124 FILLER_0_10_41
*125 FILLER_0_10_53
*126 FILLER_0_10_65
*127 FILLER_0_10_77
*128 FILLER_0_10_83
*129 FILLER_0_10_85
*130 FILLER_0_10_97
*131 FILLER_0_11_105
*132 FILLER_0_11_111
*133 FILLER_0_11_113
*134 FILLER_0_11_125
*135 FILLER_0_11_137
*136 FILLER_0_11_149
*137 FILLER_0_11_15
*138 FILLER_0_11_161
*139 FILLER_0_11_167
*140 FILLER_0_11_169
*141 FILLER_0_11_181
*142 FILLER_0_11_193
*143 FILLER_0_11_205
*144 FILLER_0_11_217
*145 FILLER_0_11_223
*146 FILLER_0_11_225
*147 FILLER_0_11_237
*148 FILLER_0_11_249
*149 FILLER_0_11_261
*150 FILLER_0_11_27
*151 FILLER_0_11_273
*152 FILLER_0_11_279
*153 FILLER_0_11_281
*154 FILLER_0_11_293
*155 FILLER_0_11_3
*156 FILLER_0_11_305
*157 FILLER_0_11_317
*158 FILLER_0_11_329
*159 FILLER_0_11_335
*160 FILLER_0_11_337
*161 FILLER_0_11_349
*162 FILLER_0_11_39
*163 FILLER_0_11_51
*164 FILLER_0_11_55
*165 FILLER_0_11_57
*166 FILLER_0_11_69
*167 FILLER_0_11_81
*168 FILLER_0_11_93
*169 FILLER_0_12_109
*170 FILLER_0_12_121
*171 FILLER_0_12_133
*172 FILLER_0_12_139
*173 FILLER_0_12_141
*174 FILLER_0_12_15
*175 FILLER_0_12_153
*176 FILLER_0_12_165
*177 FILLER_0_12_177
*178 FILLER_0_12_189
*179 FILLER_0_12_195
*180 FILLER_0_12_197
*181 FILLER_0_12_209
*182 FILLER_0_12_221
*183 FILLER_0_12_233
*184 FILLER_0_12_245
*185 FILLER_0_12_251
*186 FILLER_0_12_253
*187 FILLER_0_12_265
*188 FILLER_0_12_27
*189 FILLER_0_12_277
*190 FILLER_0_12_289
*191 FILLER_0_12_29
*192 FILLER_0_12_3
*193 FILLER_0_12_301
*194 FILLER_0_12_307
*195 FILLER_0_12_309
*196 FILLER_0_12_321
*197 FILLER_0_12_333
*198 FILLER_0_12_345
*199 FILLER_0_12_41
*200 FILLER_0_12_53
*201 FILLER_0_12_65
*202 FILLER_0_12_77
*203 FILLER_0_12_83
*204 FILLER_0_12_85
*205 FILLER_0_12_97
*206 FILLER_0_13_105
*207 FILLER_0_13_111
*208 FILLER_0_13_113
*209 FILLER_0_13_125
*210 FILLER_0_13_137
*211 FILLER_0_13_149
*212 FILLER_0_13_15
*213 FILLER_0_13_161
*214 FILLER_0_13_167
*215 FILLER_0_13_169
*216 FILLER_0_13_181
*217 FILLER_0_13_193
*218 FILLER_0_13_205
*219 FILLER_0_13_217
*220 FILLER_0_13_223
*221 FILLER_0_13_225
*222 FILLER_0_13_237
*223 FILLER_0_13_249
*224 FILLER_0_13_261
*225 FILLER_0_13_27
*226 FILLER_0_13_273
*227 FILLER_0_13_279
*228 FILLER_0_13_281
*229 FILLER_0_13_293
*230 FILLER_0_13_3
*231 FILLER_0_13_305
*232 FILLER_0_13_317
*233 FILLER_0_13_329
*234 FILLER_0_13_335
*235 FILLER_0_13_337
*236 FILLER_0_13_349
*237 FILLER_0_13_39
*238 FILLER_0_13_51
*239 FILLER_0_13_55
*240 FILLER_0_13_57
*241 FILLER_0_13_69
*242 FILLER_0_13_81
*243 FILLER_0_13_93
*244 FILLER_0_14_109
*245 FILLER_0_14_121
*246 FILLER_0_14_133
*247 FILLER_0_14_139
*248 FILLER_0_14_141
*249 FILLER_0_14_15
*250 FILLER_0_14_153
*251 FILLER_0_14_165
*252 FILLER_0_14_177
*253 FILLER_0_14_189
*254 FILLER_0_14_195
*255 FILLER_0_14_197
*256 FILLER_0_14_209
*257 FILLER_0_14_221
*258 FILLER_0_14_233
*259 FILLER_0_14_245
*260 FILLER_0_14_251
*261 FILLER_0_14_253
*262 FILLER_0_14_265
*263 FILLER_0_14_27
*264 FILLER_0_14_277
*265 FILLER_0_14_289
*266 FILLER_0_14_29
*267 FILLER_0_14_3
*268 FILLER_0_14_301
*269 FILLER_0_14_307
*270 FILLER_0_14_309
*271 FILLER_0_14_321
*272 FILLER_0_14_333
*273 FILLER_0_14_345
*274 FILLER_0_14_41
*275 FILLER_0_14_53
*276 FILLER_0_14_65
*277 FILLER_0_14_77
*278 FILLER_0_14_83
*279 FILLER_0_14_85
*280 FILLER_0_14_97
*281 FILLER_0_15_105
*282 FILLER_0_15_111
*283 FILLER_0_15_113
*284 FILLER_0_15_125
*285 FILLER_0_15_137
*286 FILLER_0_15_149
*287 FILLER_0_15_15
*288 FILLER_0_15_161
*289 FILLER_0_15_167
*290 FILLER_0_15_169
*291 FILLER_0_15_181
*292 FILLER_0_15_193
*293 FILLER_0_15_205
*294 FILLER_0_15_217
*295 FILLER_0_15_223
*296 FILLER_0_15_225
*297 FILLER_0_15_237
*298 FILLER_0_15_249
*299 FILLER_0_15_261
*300 FILLER_0_15_27
*301 FILLER_0_15_273
*302 FILLER_0_15_279
*303 FILLER_0_15_281
*304 FILLER_0_15_293
*305 FILLER_0_15_3
*306 FILLER_0_15_305
*307 FILLER_0_15_317
*308 FILLER_0_15_329
*309 FILLER_0_15_335
*310 FILLER_0_15_337
*311 FILLER_0_15_349
*312 FILLER_0_15_39
*313 FILLER_0_15_51
*314 FILLER_0_15_55
*315 FILLER_0_15_57
*316 FILLER_0_15_69
*317 FILLER_0_15_81
*318 FILLER_0_15_93
*319 FILLER_0_16_109
*320 FILLER_0_16_121
*321 FILLER_0_16_133
*322 FILLER_0_16_139
*323 FILLER_0_16_141
*324 FILLER_0_16_15
*325 FILLER_0_16_153
*326 FILLER_0_16_165
*327 FILLER_0_16_177
*328 FILLER_0_16_189
*329 FILLER_0_16_195
*330 FILLER_0_16_197
*331 FILLER_0_16_209
*332 FILLER_0_16_221
*333 FILLER_0_16_233
*334 FILLER_0_16_245
*335 FILLER_0_16_251
*336 FILLER_0_16_253
*337 FILLER_0_16_265
*338 FILLER_0_16_27
*339 FILLER_0_16_277
*340 FILLER_0_16_289
*341 FILLER_0_16_29
*342 FILLER_0_16_3
*343 FILLER_0_16_301
*344 FILLER_0_16_307
*345 FILLER_0_16_309
*346 FILLER_0_16_321
*347 FILLER_0_16_333
*348 FILLER_0_16_345
*349 FILLER_0_16_41
*350 FILLER_0_16_53
*351 FILLER_0_16_65
*352 FILLER_0_16_77
*353 FILLER_0_16_83
*354 FILLER_0_16_85
*355 FILLER_0_16_97
*356 FILLER_0_17_105
*357 FILLER_0_17_111
*358 FILLER_0_17_113
*359 FILLER_0_17_125
*360 FILLER_0_17_137
*361 FILLER_0_17_149
*362 FILLER_0_17_15
*363 FILLER_0_17_161
*364 FILLER_0_17_167
*365 FILLER_0_17_169
*366 FILLER_0_17_181
*367 FILLER_0_17_193
*368 FILLER_0_17_205
*369 FILLER_0_17_217
*370 FILLER_0_17_223
*371 FILLER_0_17_225
*372 FILLER_0_17_237
*373 FILLER_0_17_249
*374 FILLER_0_17_261
*375 FILLER_0_17_27
*376 FILLER_0_17_273
*377 FILLER_0_17_279
*378 FILLER_0_17_281
*379 FILLER_0_17_293
*380 FILLER_0_17_3
*381 FILLER_0_17_305
*382 FILLER_0_17_317
*383 FILLER_0_17_329
*384 FILLER_0_17_335
*385 FILLER_0_17_337
*386 FILLER_0_17_349
*387 FILLER_0_17_39
*388 FILLER_0_17_51
*389 FILLER_0_17_55
*390 FILLER_0_17_57
*391 FILLER_0_17_69
*392 FILLER_0_17_81
*393 FILLER_0_17_93
*394 FILLER_0_18_109
*395 FILLER_0_18_121
*396 FILLER_0_18_133
*397 FILLER_0_18_139
*398 FILLER_0_18_141
*399 FILLER_0_18_15
*400 FILLER_0_18_153
*401 FILLER_0_18_165
*402 FILLER_0_18_177
*403 FILLER_0_18_189
*404 FILLER_0_18_195
*405 FILLER_0_18_197
*406 FILLER_0_18_209
*407 FILLER_0_18_221
*408 FILLER_0_18_233
*409 FILLER_0_18_245
*410 FILLER_0_18_251
*411 FILLER_0_18_253
*412 FILLER_0_18_265
*413 FILLER_0_18_27
*414 FILLER_0_18_277
*415 FILLER_0_18_289
*416 FILLER_0_18_29
*417 FILLER_0_18_3
*418 FILLER_0_18_301
*419 FILLER_0_18_307
*420 FILLER_0_18_309
*421 FILLER_0_18_321
*422 FILLER_0_18_333
*423 FILLER_0_18_345
*424 FILLER_0_18_41
*425 FILLER_0_18_53
*426 FILLER_0_18_65
*427 FILLER_0_18_77
*428 FILLER_0_18_83
*429 FILLER_0_18_85
*430 FILLER_0_18_97
*431 FILLER_0_19_105
*432 FILLER_0_19_111
*433 FILLER_0_19_113
*434 FILLER_0_19_125
*435 FILLER_0_19_137
*436 FILLER_0_19_149
*437 FILLER_0_19_15
*438 FILLER_0_19_161
*439 FILLER_0_19_167
*440 FILLER_0_19_169
*441 FILLER_0_19_181
*442 FILLER_0_19_193
*443 FILLER_0_19_205
*444 FILLER_0_19_217
*445 FILLER_0_19_223
*446 FILLER_0_19_225
*447 FILLER_0_19_237
*448 FILLER_0_19_249
*449 FILLER_0_19_261
*450 FILLER_0_19_27
*451 FILLER_0_19_273
*452 FILLER_0_19_279
*453 FILLER_0_19_281
*454 FILLER_0_19_293
*455 FILLER_0_19_3
*456 FILLER_0_19_305
*457 FILLER_0_19_317
*458 FILLER_0_19_329
*459 FILLER_0_19_335
*460 FILLER_0_19_337
*461 FILLER_0_19_349
*462 FILLER_0_19_39
*463 FILLER_0_19_51
*464 FILLER_0_19_55
*465 FILLER_0_19_57
*466 FILLER_0_19_69
*467 FILLER_0_19_81
*468 FILLER_0_19_93
*469 FILLER_0_1_105
*470 FILLER_0_1_111
*471 FILLER_0_1_113
*472 FILLER_0_1_125
*473 FILLER_0_1_137
*474 FILLER_0_1_149
*475 FILLER_0_1_15
*476 FILLER_0_1_161
*477 FILLER_0_1_167
*478 FILLER_0_1_169
*479 FILLER_0_1_181
*480 FILLER_0_1_193
*481 FILLER_0_1_205
*482 FILLER_0_1_217
*483 FILLER_0_1_223
*484 FILLER_0_1_225
*485 FILLER_0_1_237
*486 FILLER_0_1_249
*487 FILLER_0_1_261
*488 FILLER_0_1_27
*489 FILLER_0_1_273
*490 FILLER_0_1_279
*491 FILLER_0_1_281
*492 FILLER_0_1_293
*493 FILLER_0_1_3
*494 FILLER_0_1_305
*495 FILLER_0_1_317
*496 FILLER_0_1_329
*497 FILLER_0_1_335
*498 FILLER_0_1_337
*499 FILLER_0_1_349
*500 FILLER_0_1_39
*501 FILLER_0_1_51
*502 FILLER_0_1_55
*503 FILLER_0_1_57
*504 FILLER_0_1_69
*505 FILLER_0_1_81
*506 FILLER_0_1_93
*507 FILLER_0_20_109
*508 FILLER_0_20_121
*509 FILLER_0_20_133
*510 FILLER_0_20_139
*511 FILLER_0_20_141
*512 FILLER_0_20_15
*513 FILLER_0_20_153
*514 FILLER_0_20_165
*515 FILLER_0_20_177
*516 FILLER_0_20_189
*517 FILLER_0_20_195
*518 FILLER_0_20_197
*519 FILLER_0_20_209
*520 FILLER_0_20_221
*521 FILLER_0_20_233
*522 FILLER_0_20_245
*523 FILLER_0_20_251
*524 FILLER_0_20_253
*525 FILLER_0_20_265
*526 FILLER_0_20_27
*527 FILLER_0_20_277
*528 FILLER_0_20_289
*529 FILLER_0_20_29
*530 FILLER_0_20_3
*531 FILLER_0_20_301
*532 FILLER_0_20_307
*533 FILLER_0_20_309
*534 FILLER_0_20_321
*535 FILLER_0_20_333
*536 FILLER_0_20_345
*537 FILLER_0_20_41
*538 FILLER_0_20_53
*539 FILLER_0_20_65
*540 FILLER_0_20_77
*541 FILLER_0_20_83
*542 FILLER_0_20_85
*543 FILLER_0_20_97
*544 FILLER_0_21_105
*545 FILLER_0_21_111
*546 FILLER_0_21_113
*547 FILLER_0_21_125
*548 FILLER_0_21_137
*549 FILLER_0_21_149
*550 FILLER_0_21_15
*551 FILLER_0_21_161
*552 FILLER_0_21_167
*553 FILLER_0_21_169
*554 FILLER_0_21_181
*555 FILLER_0_21_193
*556 FILLER_0_21_205
*557 FILLER_0_21_217
*558 FILLER_0_21_223
*559 FILLER_0_21_225
*560 FILLER_0_21_237
*561 FILLER_0_21_249
*562 FILLER_0_21_261
*563 FILLER_0_21_27
*564 FILLER_0_21_273
*565 FILLER_0_21_279
*566 FILLER_0_21_281
*567 FILLER_0_21_293
*568 FILLER_0_21_3
*569 FILLER_0_21_305
*570 FILLER_0_21_317
*571 FILLER_0_21_329
*572 FILLER_0_21_335
*573 FILLER_0_21_337
*574 FILLER_0_21_349
*575 FILLER_0_21_39
*576 FILLER_0_21_51
*577 FILLER_0_21_55
*578 FILLER_0_21_57
*579 FILLER_0_21_69
*580 FILLER_0_21_81
*581 FILLER_0_21_93
*582 FILLER_0_22_109
*583 FILLER_0_22_121
*584 FILLER_0_22_133
*585 FILLER_0_22_139
*586 FILLER_0_22_141
*587 FILLER_0_22_15
*588 FILLER_0_22_153
*589 FILLER_0_22_165
*590 FILLER_0_22_177
*591 FILLER_0_22_189
*592 FILLER_0_22_195
*593 FILLER_0_22_197
*594 FILLER_0_22_209
*595 FILLER_0_22_221
*596 FILLER_0_22_233
*597 FILLER_0_22_245
*598 FILLER_0_22_251
*599 FILLER_0_22_253
*600 FILLER_0_22_265
*601 FILLER_0_22_27
*602 FILLER_0_22_277
*603 FILLER_0_22_289
*604 FILLER_0_22_29
*605 FILLER_0_22_3
*606 FILLER_0_22_301
*607 FILLER_0_22_307
*608 FILLER_0_22_309
*609 FILLER_0_22_321
*610 FILLER_0_22_333
*611 FILLER_0_22_345
*612 FILLER_0_22_41
*613 FILLER_0_22_53
*614 FILLER_0_22_65
*615 FILLER_0_22_77
*616 FILLER_0_22_83
*617 FILLER_0_22_85
*618 FILLER_0_22_97
*619 FILLER_0_23_105
*620 FILLER_0_23_111
*621 FILLER_0_23_113
*622 FILLER_0_23_125
*623 FILLER_0_23_137
*624 FILLER_0_23_149
*625 FILLER_0_23_15
*626 FILLER_0_23_161
*627 FILLER_0_23_167
*628 FILLER_0_23_169
*629 FILLER_0_23_181
*630 FILLER_0_23_193
*631 FILLER_0_23_205
*632 FILLER_0_23_217
*633 FILLER_0_23_223
*634 FILLER_0_23_225
*635 FILLER_0_23_237
*636 FILLER_0_23_249
*637 FILLER_0_23_261
*638 FILLER_0_23_27
*639 FILLER_0_23_273
*640 FILLER_0_23_279
*641 FILLER_0_23_281
*642 FILLER_0_23_293
*643 FILLER_0_23_3
*644 FILLER_0_23_305
*645 FILLER_0_23_317
*646 FILLER_0_23_329
*647 FILLER_0_23_335
*648 FILLER_0_23_337
*649 FILLER_0_23_349
*650 FILLER_0_23_39
*651 FILLER_0_23_51
*652 FILLER_0_23_55
*653 FILLER_0_23_57
*654 FILLER_0_23_69
*655 FILLER_0_23_81
*656 FILLER_0_23_93
*657 FILLER_0_24_109
*658 FILLER_0_24_121
*659 FILLER_0_24_133
*660 FILLER_0_24_139
*661 FILLER_0_24_141
*662 FILLER_0_24_15
*663 FILLER_0_24_153
*664 FILLER_0_24_165
*665 FILLER_0_24_177
*666 FILLER_0_24_189
*667 FILLER_0_24_195
*668 FILLER_0_24_197
*669 FILLER_0_24_209
*670 FILLER_0_24_221
*671 FILLER_0_24_233
*672 FILLER_0_24_245
*673 FILLER_0_24_251
*674 FILLER_0_24_253
*675 FILLER_0_24_265
*676 FILLER_0_24_27
*677 FILLER_0_24_277
*678 FILLER_0_24_289
*679 FILLER_0_24_29
*680 FILLER_0_24_3
*681 FILLER_0_24_301
*682 FILLER_0_24_307
*683 FILLER_0_24_309
*684 FILLER_0_24_321
*685 FILLER_0_24_333
*686 FILLER_0_24_345
*687 FILLER_0_24_41
*688 FILLER_0_24_53
*689 FILLER_0_24_65
*690 FILLER_0_24_77
*691 FILLER_0_24_83
*692 FILLER_0_24_85
*693 FILLER_0_24_97
*694 FILLER_0_25_105
*695 FILLER_0_25_111
*696 FILLER_0_25_113
*697 FILLER_0_25_125
*698 FILLER_0_25_137
*699 FILLER_0_25_149
*700 FILLER_0_25_15
*701 FILLER_0_25_161
*702 FILLER_0_25_167
*703 FILLER_0_25_169
*704 FILLER_0_25_181
*705 FILLER_0_25_193
*706 FILLER_0_25_205
*707 FILLER_0_25_217
*708 FILLER_0_25_223
*709 FILLER_0_25_225
*710 FILLER_0_25_237
*711 FILLER_0_25_249
*712 FILLER_0_25_261
*713 FILLER_0_25_27
*714 FILLER_0_25_273
*715 FILLER_0_25_279
*716 FILLER_0_25_281
*717 FILLER_0_25_293
*718 FILLER_0_25_3
*719 FILLER_0_25_305
*720 FILLER_0_25_317
*721 FILLER_0_25_329
*722 FILLER_0_25_335
*723 FILLER_0_25_337
*724 FILLER_0_25_349
*725 FILLER_0_25_39
*726 FILLER_0_25_51
*727 FILLER_0_25_55
*728 FILLER_0_25_57
*729 FILLER_0_25_69
*730 FILLER_0_25_81
*731 FILLER_0_25_93
*732 FILLER_0_26_109
*733 FILLER_0_26_121
*734 FILLER_0_26_133
*735 FILLER_0_26_139
*736 FILLER_0_26_141
*737 FILLER_0_26_15
*738 FILLER_0_26_153
*739 FILLER_0_26_165
*740 FILLER_0_26_177
*741 FILLER_0_26_189
*742 FILLER_0_26_195
*743 FILLER_0_26_197
*744 FILLER_0_26_209
*745 FILLER_0_26_221
*746 FILLER_0_26_233
*747 FILLER_0_26_245
*748 FILLER_0_26_251
*749 FILLER_0_26_253
*750 FILLER_0_26_265
*751 FILLER_0_26_27
*752 FILLER_0_26_277
*753 FILLER_0_26_289
*754 FILLER_0_26_29
*755 FILLER_0_26_3
*756 FILLER_0_26_301
*757 FILLER_0_26_307
*758 FILLER_0_26_309
*759 FILLER_0_26_321
*760 FILLER_0_26_333
*761 FILLER_0_26_345
*762 FILLER_0_26_41
*763 FILLER_0_26_53
*764 FILLER_0_26_65
*765 FILLER_0_26_77
*766 FILLER_0_26_83
*767 FILLER_0_26_85
*768 FILLER_0_26_97
*769 FILLER_0_27_105
*770 FILLER_0_27_111
*771 FILLER_0_27_113
*772 FILLER_0_27_125
*773 FILLER_0_27_137
*774 FILLER_0_27_149
*775 FILLER_0_27_15
*776 FILLER_0_27_161
*777 FILLER_0_27_167
*778 FILLER_0_27_169
*779 FILLER_0_27_181
*780 FILLER_0_27_193
*781 FILLER_0_27_205
*782 FILLER_0_27_217
*783 FILLER_0_27_223
*784 FILLER_0_27_225
*785 FILLER_0_27_237
*786 FILLER_0_27_249
*787 FILLER_0_27_261
*788 FILLER_0_27_27
*789 FILLER_0_27_273
*790 FILLER_0_27_279
*791 FILLER_0_27_281
*792 FILLER_0_27_293
*793 FILLER_0_27_3
*794 FILLER_0_27_305
*795 FILLER_0_27_317
*796 FILLER_0_27_329
*797 FILLER_0_27_335
*798 FILLER_0_27_337
*799 FILLER_0_27_349
*800 FILLER_0_27_39
*801 FILLER_0_27_51
*802 FILLER_0_27_55
*803 FILLER_0_27_57
*804 FILLER_0_27_69
*805 FILLER_0_27_81
*806 FILLER_0_27_93
*807 FILLER_0_28_109
*808 FILLER_0_28_121
*809 FILLER_0_28_133
*810 FILLER_0_28_139
*811 FILLER_0_28_141
*812 FILLER_0_28_15
*813 FILLER_0_28_153
*814 FILLER_0_28_165
*815 FILLER_0_28_177
*816 FILLER_0_28_189
*817 FILLER_0_28_195
*818 FILLER_0_28_197
*819 FILLER_0_28_209
*820 FILLER_0_28_221
*821 FILLER_0_28_233
*822 FILLER_0_28_245
*823 FILLER_0_28_251
*824 FILLER_0_28_253
*825 FILLER_0_28_265
*826 FILLER_0_28_27
*827 FILLER_0_28_277
*828 FILLER_0_28_289
*829 FILLER_0_28_29
*830 FILLER_0_28_3
*831 FILLER_0_28_301
*832 FILLER_0_28_307
*833 FILLER_0_28_309
*834 FILLER_0_28_321
*835 FILLER_0_28_333
*836 FILLER_0_28_345
*837 FILLER_0_28_41
*838 FILLER_0_28_53
*839 FILLER_0_28_65
*840 FILLER_0_28_77
*841 FILLER_0_28_83
*842 FILLER_0_28_85
*843 FILLER_0_28_97
*844 FILLER_0_29_105
*845 FILLER_0_29_111
*846 FILLER_0_29_113
*847 FILLER_0_29_125
*848 FILLER_0_29_137
*849 FILLER_0_29_149
*850 FILLER_0_29_15
*851 FILLER_0_29_161
*852 FILLER_0_29_167
*853 FILLER_0_29_169
*854 FILLER_0_29_181
*855 FILLER_0_29_193
*856 FILLER_0_29_205
*857 FILLER_0_29_217
*858 FILLER_0_29_223
*859 FILLER_0_29_225
*860 FILLER_0_29_237
*861 FILLER_0_29_249
*862 FILLER_0_29_261
*863 FILLER_0_29_27
*864 FILLER_0_29_273
*865 FILLER_0_29_279
*866 FILLER_0_29_281
*867 FILLER_0_29_293
*868 FILLER_0_29_3
*869 FILLER_0_29_305
*870 FILLER_0_29_317
*871 FILLER_0_29_329
*872 FILLER_0_29_335
*873 FILLER_0_29_337
*874 FILLER_0_29_349
*875 FILLER_0_29_39
*876 FILLER_0_29_51
*877 FILLER_0_29_55
*878 FILLER_0_29_57
*879 FILLER_0_29_69
*880 FILLER_0_29_81
*881 FILLER_0_29_93
*882 FILLER_0_2_109
*883 FILLER_0_2_121
*884 FILLER_0_2_133
*885 FILLER_0_2_139
*886 FILLER_0_2_141
*887 FILLER_0_2_15
*888 FILLER_0_2_153
*889 FILLER_0_2_165
*890 FILLER_0_2_177
*891 FILLER_0_2_189
*892 FILLER_0_2_195
*893 FILLER_0_2_197
*894 FILLER_0_2_209
*895 FILLER_0_2_221
*896 FILLER_0_2_233
*897 FILLER_0_2_245
*898 FILLER_0_2_251
*899 FILLER_0_2_253
*900 FILLER_0_2_265
*901 FILLER_0_2_27
*902 FILLER_0_2_277
*903 FILLER_0_2_289
*904 FILLER_0_2_29
*905 FILLER_0_2_3
*906 FILLER_0_2_301
*907 FILLER_0_2_307
*908 FILLER_0_2_309
*909 FILLER_0_2_321
*910 FILLER_0_2_333
*911 FILLER_0_2_345
*912 FILLER_0_2_41
*913 FILLER_0_2_53
*914 FILLER_0_2_65
*915 FILLER_0_2_77
*916 FILLER_0_2_83
*917 FILLER_0_2_85
*918 FILLER_0_2_97
*919 FILLER_0_30_109
*920 FILLER_0_30_121
*921 FILLER_0_30_133
*922 FILLER_0_30_139
*923 FILLER_0_30_141
*924 FILLER_0_30_15
*925 FILLER_0_30_153
*926 FILLER_0_30_165
*927 FILLER_0_30_177
*928 FILLER_0_30_189
*929 FILLER_0_30_195
*930 FILLER_0_30_197
*931 FILLER_0_30_209
*932 FILLER_0_30_221
*933 FILLER_0_30_233
*934 FILLER_0_30_245
*935 FILLER_0_30_251
*936 FILLER_0_30_253
*937 FILLER_0_30_265
*938 FILLER_0_30_27
*939 FILLER_0_30_277
*940 FILLER_0_30_289
*941 FILLER_0_30_29
*942 FILLER_0_30_3
*943 FILLER_0_30_301
*944 FILLER_0_30_307
*945 FILLER_0_30_309
*946 FILLER_0_30_321
*947 FILLER_0_30_333
*948 FILLER_0_30_345
*949 FILLER_0_30_41
*950 FILLER_0_30_53
*951 FILLER_0_30_65
*952 FILLER_0_30_77
*953 FILLER_0_30_83
*954 FILLER_0_30_85
*955 FILLER_0_30_97
*956 FILLER_0_31_105
*957 FILLER_0_31_111
*958 FILLER_0_31_113
*959 FILLER_0_31_125
*960 FILLER_0_31_137
*961 FILLER_0_31_149
*962 FILLER_0_31_15
*963 FILLER_0_31_161
*964 FILLER_0_31_167
*965 FILLER_0_31_169
*966 FILLER_0_31_181
*967 FILLER_0_31_193
*968 FILLER_0_31_205
*969 FILLER_0_31_217
*970 FILLER_0_31_223
*971 FILLER_0_31_225
*972 FILLER_0_31_237
*973 FILLER_0_31_249
*974 FILLER_0_31_261
*975 FILLER_0_31_27
*976 FILLER_0_31_273
*977 FILLER_0_31_279
*978 FILLER_0_31_281
*979 FILLER_0_31_293
*980 FILLER_0_31_3
*981 FILLER_0_31_305
*982 FILLER_0_31_317
*983 FILLER_0_31_329
*984 FILLER_0_31_335
*985 FILLER_0_31_337
*986 FILLER_0_31_349
*987 FILLER_0_31_39
*988 FILLER_0_31_51
*989 FILLER_0_31_55
*990 FILLER_0_31_57
*991 FILLER_0_31_69
*992 FILLER_0_31_81
*993 FILLER_0_31_93
*994 FILLER_0_32_109
*995 FILLER_0_32_121
*996 FILLER_0_32_133
*997 FILLER_0_32_139
*998 FILLER_0_32_141
*999 FILLER_0_32_15
*1000 FILLER_0_32_153
*1001 FILLER_0_32_165
*1002 FILLER_0_32_177
*1003 FILLER_0_32_189
*1004 FILLER_0_32_195
*1005 FILLER_0_32_197
*1006 FILLER_0_32_209
*1007 FILLER_0_32_221
*1008 FILLER_0_32_233
*1009 FILLER_0_32_245
*1010 FILLER_0_32_251
*1011 FILLER_0_32_253
*1012 FILLER_0_32_265
*1013 FILLER_0_32_27
*1014 FILLER_0_32_277
*1015 FILLER_0_32_289
*1016 FILLER_0_32_29
*1017 FILLER_0_32_3
*1018 FILLER_0_32_301
*1019 FILLER_0_32_307
*1020 FILLER_0_32_309
*1021 FILLER_0_32_321
*1022 FILLER_0_32_333
*1023 FILLER_0_32_345
*1024 FILLER_0_32_41
*1025 FILLER_0_32_53
*1026 FILLER_0_32_65
*1027 FILLER_0_32_77
*1028 FILLER_0_32_83
*1029 FILLER_0_32_85
*1030 FILLER_0_32_97
*1031 FILLER_0_33_105
*1032 FILLER_0_33_111
*1033 FILLER_0_33_113
*1034 FILLER_0_33_125
*1035 FILLER_0_33_137
*1036 FILLER_0_33_149
*1037 FILLER_0_33_15
*1038 FILLER_0_33_161
*1039 FILLER_0_33_167
*1040 FILLER_0_33_169
*1041 FILLER_0_33_181
*1042 FILLER_0_33_193
*1043 FILLER_0_33_205
*1044 FILLER_0_33_217
*1045 FILLER_0_33_223
*1046 FILLER_0_33_225
*1047 FILLER_0_33_237
*1048 FILLER_0_33_249
*1049 FILLER_0_33_261
*1050 FILLER_0_33_27
*1051 FILLER_0_33_273
*1052 FILLER_0_33_279
*1053 FILLER_0_33_281
*1054 FILLER_0_33_293
*1055 FILLER_0_33_3
*1056 FILLER_0_33_305
*1057 FILLER_0_33_317
*1058 FILLER_0_33_329
*1059 FILLER_0_33_335
*1060 FILLER_0_33_337
*1061 FILLER_0_33_349
*1062 FILLER_0_33_39
*1063 FILLER_0_33_51
*1064 FILLER_0_33_55
*1065 FILLER_0_33_57
*1066 FILLER_0_33_69
*1067 FILLER_0_33_81
*1068 FILLER_0_33_93
*1069 FILLER_0_34_109
*1070 FILLER_0_34_121
*1071 FILLER_0_34_133
*1072 FILLER_0_34_139
*1073 FILLER_0_34_141
*1074 FILLER_0_34_15
*1075 FILLER_0_34_153
*1076 FILLER_0_34_165
*1077 FILLER_0_34_177
*1078 FILLER_0_34_189
*1079 FILLER_0_34_195
*1080 FILLER_0_34_197
*1081 FILLER_0_34_209
*1082 FILLER_0_34_221
*1083 FILLER_0_34_233
*1084 FILLER_0_34_245
*1085 FILLER_0_34_251
*1086 FILLER_0_34_253
*1087 FILLER_0_34_265
*1088 FILLER_0_34_27
*1089 FILLER_0_34_277
*1090 FILLER_0_34_289
*1091 FILLER_0_34_29
*1092 FILLER_0_34_3
*1093 FILLER_0_34_301
*1094 FILLER_0_34_307
*1095 FILLER_0_34_309
*1096 FILLER_0_34_321
*1097 FILLER_0_34_333
*1098 FILLER_0_34_345
*1099 FILLER_0_34_41
*1100 FILLER_0_34_53
*1101 FILLER_0_34_65
*1102 FILLER_0_34_77
*1103 FILLER_0_34_83
*1104 FILLER_0_34_85
*1105 FILLER_0_34_97
*1106 FILLER_0_35_105
*1107 FILLER_0_35_111
*1108 FILLER_0_35_113
*1109 FILLER_0_35_125
*1110 FILLER_0_35_137
*1111 FILLER_0_35_149
*1112 FILLER_0_35_15
*1113 FILLER_0_35_161
*1114 FILLER_0_35_167
*1115 FILLER_0_35_169
*1116 FILLER_0_35_181
*1117 FILLER_0_35_193
*1118 FILLER_0_35_205
*1119 FILLER_0_35_217
*1120 FILLER_0_35_223
*1121 FILLER_0_35_225
*1122 FILLER_0_35_237
*1123 FILLER_0_35_249
*1124 FILLER_0_35_261
*1125 FILLER_0_35_27
*1126 FILLER_0_35_273
*1127 FILLER_0_35_279
*1128 FILLER_0_35_281
*1129 FILLER_0_35_293
*1130 FILLER_0_35_3
*1131 FILLER_0_35_305
*1132 FILLER_0_35_317
*1133 FILLER_0_35_329
*1134 FILLER_0_35_335
*1135 FILLER_0_35_337
*1136 FILLER_0_35_349
*1137 FILLER_0_35_39
*1138 FILLER_0_35_51
*1139 FILLER_0_35_55
*1140 FILLER_0_35_57
*1141 FILLER_0_35_69
*1142 FILLER_0_35_81
*1143 FILLER_0_35_93
*1144 FILLER_0_36_109
*1145 FILLER_0_36_121
*1146 FILLER_0_36_133
*1147 FILLER_0_36_139
*1148 FILLER_0_36_141
*1149 FILLER_0_36_15
*1150 FILLER_0_36_153
*1151 FILLER_0_36_165
*1152 FILLER_0_36_177
*1153 FILLER_0_36_189
*1154 FILLER_0_36_195
*1155 FILLER_0_36_197
*1156 FILLER_0_36_209
*1157 FILLER_0_36_221
*1158 FILLER_0_36_233
*1159 FILLER_0_36_245
*1160 FILLER_0_36_251
*1161 FILLER_0_36_253
*1162 FILLER_0_36_265
*1163 FILLER_0_36_27
*1164 FILLER_0_36_277
*1165 FILLER_0_36_289
*1166 FILLER_0_36_29
*1167 FILLER_0_36_3
*1168 FILLER_0_36_301
*1169 FILLER_0_36_307
*1170 FILLER_0_36_309
*1171 FILLER_0_36_321
*1172 FILLER_0_36_333
*1173 FILLER_0_36_345
*1174 FILLER_0_36_41
*1175 FILLER_0_36_53
*1176 FILLER_0_36_65
*1177 FILLER_0_36_77
*1178 FILLER_0_36_83
*1179 FILLER_0_36_85
*1180 FILLER_0_36_97
*1181 FILLER_0_37_105
*1182 FILLER_0_37_111
*1183 FILLER_0_37_113
*1184 FILLER_0_37_125
*1185 FILLER_0_37_137
*1186 FILLER_0_37_149
*1187 FILLER_0_37_15
*1188 FILLER_0_37_161
*1189 FILLER_0_37_167
*1190 FILLER_0_37_169
*1191 FILLER_0_37_173
*1192 FILLER_0_37_180
*1193 FILLER_0_37_192
*1194 FILLER_0_37_200
*1195 FILLER_0_37_204
*1196 FILLER_0_37_216
*1197 FILLER_0_37_225
*1198 FILLER_0_37_237
*1199 FILLER_0_37_249
*1200 FILLER_0_37_261
*1201 FILLER_0_37_27
*1202 FILLER_0_37_273
*1203 FILLER_0_37_279
*1204 FILLER_0_37_281
*1205 FILLER_0_37_293
*1206 FILLER_0_37_3
*1207 FILLER_0_37_305
*1208 FILLER_0_37_317
*1209 FILLER_0_37_329
*1210 FILLER_0_37_335
*1211 FILLER_0_37_337
*1212 FILLER_0_37_349
*1213 FILLER_0_37_39
*1214 FILLER_0_37_51
*1215 FILLER_0_37_55
*1216 FILLER_0_37_57
*1217 FILLER_0_37_69
*1218 FILLER_0_37_81
*1219 FILLER_0_37_93
*1220 FILLER_0_38_104
*1221 FILLER_0_38_110
*1222 FILLER_0_38_116
*1223 FILLER_0_38_122
*1224 FILLER_0_38_128
*1225 FILLER_0_38_134
*1226 FILLER_0_38_141
*1227 FILLER_0_38_146
*1228 FILLER_0_38_15
*1229 FILLER_0_38_152
*1230 FILLER_0_38_158
*1231 FILLER_0_38_166
*1232 FILLER_0_38_169
*1233 FILLER_0_38_183
*1234 FILLER_0_38_204
*1235 FILLER_0_38_217
*1236 FILLER_0_38_223
*1237 FILLER_0_38_225
*1238 FILLER_0_38_237
*1239 FILLER_0_38_249
*1240 FILLER_0_38_253
*1241 FILLER_0_38_260
*1242 FILLER_0_38_266
*1243 FILLER_0_38_27
*1244 FILLER_0_38_272
*1245 FILLER_0_38_278
*1246 FILLER_0_38_284
*1247 FILLER_0_38_29
*1248 FILLER_0_38_290
*1249 FILLER_0_38_296
*1250 FILLER_0_38_3
*1251 FILLER_0_38_309
*1252 FILLER_0_38_321
*1253 FILLER_0_38_333
*1254 FILLER_0_38_337
*1255 FILLER_0_38_349
*1256 FILLER_0_38_41
*1257 FILLER_0_38_53
*1258 FILLER_0_38_57
*1259 FILLER_0_38_68
*1260 FILLER_0_38_74
*1261 FILLER_0_38_80
*1262 FILLER_0_38_88
*1263 FILLER_0_38_92
*1264 FILLER_0_38_98
*1265 FILLER_0_3_105
*1266 FILLER_0_3_111
*1267 FILLER_0_3_113
*1268 FILLER_0_3_125
*1269 FILLER_0_3_137
*1270 FILLER_0_3_149
*1271 FILLER_0_3_15
*1272 FILLER_0_3_161
*1273 FILLER_0_3_167
*1274 FILLER_0_3_169
*1275 FILLER_0_3_181
*1276 FILLER_0_3_193
*1277 FILLER_0_3_205
*1278 FILLER_0_3_217
*1279 FILLER_0_3_223
*1280 FILLER_0_3_225
*1281 FILLER_0_3_237
*1282 FILLER_0_3_249
*1283 FILLER_0_3_261
*1284 FILLER_0_3_27
*1285 FILLER_0_3_273
*1286 FILLER_0_3_279
*1287 FILLER_0_3_281
*1288 FILLER_0_3_293
*1289 FILLER_0_3_3
*1290 FILLER_0_3_305
*1291 FILLER_0_3_317
*1292 FILLER_0_3_329
*1293 FILLER_0_3_335
*1294 FILLER_0_3_337
*1295 FILLER_0_3_349
*1296 FILLER_0_3_39
*1297 FILLER_0_3_51
*1298 FILLER_0_3_55
*1299 FILLER_0_3_57
*1300 FILLER_0_3_69
*1301 FILLER_0_3_81
*1302 FILLER_0_3_93
*1303 FILLER_0_4_109
*1304 FILLER_0_4_121
*1305 FILLER_0_4_133
*1306 FILLER_0_4_139
*1307 FILLER_0_4_141
*1308 FILLER_0_4_15
*1309 FILLER_0_4_153
*1310 FILLER_0_4_165
*1311 FILLER_0_4_177
*1312 FILLER_0_4_189
*1313 FILLER_0_4_195
*1314 FILLER_0_4_197
*1315 FILLER_0_4_209
*1316 FILLER_0_4_221
*1317 FILLER_0_4_233
*1318 FILLER_0_4_245
*1319 FILLER_0_4_251
*1320 FILLER_0_4_253
*1321 FILLER_0_4_265
*1322 FILLER_0_4_27
*1323 FILLER_0_4_277
*1324 FILLER_0_4_289
*1325 FILLER_0_4_29
*1326 FILLER_0_4_3
*1327 FILLER_0_4_301
*1328 FILLER_0_4_307
*1329 FILLER_0_4_309
*1330 FILLER_0_4_321
*1331 FILLER_0_4_333
*1332 FILLER_0_4_345
*1333 FILLER_0_4_41
*1334 FILLER_0_4_53
*1335 FILLER_0_4_65
*1336 FILLER_0_4_77
*1337 FILLER_0_4_83
*1338 FILLER_0_4_85
*1339 FILLER_0_4_97
*1340 FILLER_0_5_105
*1341 FILLER_0_5_111
*1342 FILLER_0_5_113
*1343 FILLER_0_5_125
*1344 FILLER_0_5_137
*1345 FILLER_0_5_149
*1346 FILLER_0_5_15
*1347 FILLER_0_5_161
*1348 FILLER_0_5_167
*1349 FILLER_0_5_169
*1350 FILLER_0_5_181
*1351 FILLER_0_5_193
*1352 FILLER_0_5_205
*1353 FILLER_0_5_217
*1354 FILLER_0_5_223
*1355 FILLER_0_5_225
*1356 FILLER_0_5_237
*1357 FILLER_0_5_249
*1358 FILLER_0_5_261
*1359 FILLER_0_5_27
*1360 FILLER_0_5_273
*1361 FILLER_0_5_279
*1362 FILLER_0_5_281
*1363 FILLER_0_5_293
*1364 FILLER_0_5_3
*1365 FILLER_0_5_305
*1366 FILLER_0_5_317
*1367 FILLER_0_5_329
*1368 FILLER_0_5_335
*1369 FILLER_0_5_337
*1370 FILLER_0_5_349
*1371 FILLER_0_5_39
*1372 FILLER_0_5_51
*1373 FILLER_0_5_55
*1374 FILLER_0_5_57
*1375 FILLER_0_5_69
*1376 FILLER_0_5_81
*1377 FILLER_0_5_93
*1378 FILLER_0_6_109
*1379 FILLER_0_6_121
*1380 FILLER_0_6_133
*1381 FILLER_0_6_139
*1382 FILLER_0_6_141
*1383 FILLER_0_6_15
*1384 FILLER_0_6_153
*1385 FILLER_0_6_165
*1386 FILLER_0_6_177
*1387 FILLER_0_6_189
*1388 FILLER_0_6_195
*1389 FILLER_0_6_197
*1390 FILLER_0_6_209
*1391 FILLER_0_6_221
*1392 FILLER_0_6_233
*1393 FILLER_0_6_245
*1394 FILLER_0_6_251
*1395 FILLER_0_6_253
*1396 FILLER_0_6_265
*1397 FILLER_0_6_27
*1398 FILLER_0_6_277
*1399 FILLER_0_6_289
*1400 FILLER_0_6_29
*1401 FILLER_0_6_3
*1402 FILLER_0_6_301
*1403 FILLER_0_6_307
*1404 FILLER_0_6_309
*1405 FILLER_0_6_321
*1406 FILLER_0_6_333
*1407 FILLER_0_6_345
*1408 FILLER_0_6_41
*1409 FILLER_0_6_53
*1410 FILLER_0_6_65
*1411 FILLER_0_6_77
*1412 FILLER_0_6_83
*1413 FILLER_0_6_85
*1414 FILLER_0_6_97
*1415 FILLER_0_7_105
*1416 FILLER_0_7_111
*1417 FILLER_0_7_113
*1418 FILLER_0_7_125
*1419 FILLER_0_7_137
*1420 FILLER_0_7_149
*1421 FILLER_0_7_15
*1422 FILLER_0_7_161
*1423 FILLER_0_7_167
*1424 FILLER_0_7_169
*1425 FILLER_0_7_181
*1426 FILLER_0_7_193
*1427 FILLER_0_7_205
*1428 FILLER_0_7_217
*1429 FILLER_0_7_223
*1430 FILLER_0_7_225
*1431 FILLER_0_7_237
*1432 FILLER_0_7_249
*1433 FILLER_0_7_261
*1434 FILLER_0_7_27
*1435 FILLER_0_7_273
*1436 FILLER_0_7_279
*1437 FILLER_0_7_281
*1438 FILLER_0_7_293
*1439 FILLER_0_7_3
*1440 FILLER_0_7_305
*1441 FILLER_0_7_317
*1442 FILLER_0_7_329
*1443 FILLER_0_7_335
*1444 FILLER_0_7_337
*1445 FILLER_0_7_349
*1446 FILLER_0_7_39
*1447 FILLER_0_7_51
*1448 FILLER_0_7_55
*1449 FILLER_0_7_57
*1450 FILLER_0_7_69
*1451 FILLER_0_7_81
*1452 FILLER_0_7_93
*1453 FILLER_0_8_109
*1454 FILLER_0_8_121