*SPEF "ieee 1481-1999"
*DESIGN "tt_um_perceptron_neuromeme"
*DATE "11:11:11 Fri 11 11, 1111"
*VENDOR "OpenRCX"
*PROGRAM "Parallel Extraction"
*VERSION "1.0"
*DESIGN_FLOW "NAME_SCOPE LOCAL" "PIN_CAP NONE"
*DIVIDER /
*DELIMITER :
*BUS_DELIMITER []
*T_UNIT 1 NS
*C_UNIT 1 PF
*R_UNIT 1 OHM
*L_UNIT 1 HENRY

*NAME_MAP
*3 clk
*4 ena
*5 rst_n
*6 ui_in[0]
*7 ui_in[1]
*8 ui_in[2]
*9 ui_in[3]
*10 ui_in[4]
*11 ui_in[5]
*12 ui_in[6]
*13 ui_in[7]
*14 uio_in[0]
*15 uio_in[1]
*16 uio_in[2]
*17 uio_in[3]
*18 uio_in[4]
*19 uio_in[5]
*20 uio_in[6]
*21 uio_in[7]
*22 net21
*23 net22
*24 net23
*25 net24
*26 net25
*27 net26
*28 net27
*29 net28
*30 net29
*31 net30
*32 net31
*33 net32
*34 net33
*35 net34
*36 net35
*37 net36
*38 uo_out[0]
*39 net37
*40 uo_out[2]
*41 net38
*42 uo_out[4]
*43 net39
*44 net40
*45 net41
*46 _000_
*47 _001_
*48 _002_
*49 _003_
*50 _004_
*51 _005_
*52 _006_
*53 _007_
*54 _008_
*55 _009_
*56 _010_
*57 _011_
*58 _012_
*59 _013_
*60 _014_
*61 _015_
*62 _016_
*63 _017_
*64 _018_
*65 _019_
*66 _020_
*67 _021_
*68 _022_
*69 _023_
*70 _024_
*71 _025_
*72 _026_
*73 _027_
*74 _028_
*75 _029_
*76 _030_
*77 _031_
*78 _032_
*79 _033_
*80 _034_
*81 _035_
*82 _036_
*83 _037_
*84 _038_
*85 _039_
*86 _040_
*87 _041_
*88 _042_
*89 _043_
*90 _044_
*91 _045_
*92 _046_
*93 _047_
*94 _048_
*95 _049_
*96 _050_
*97 _051_
*98 _052_
*99 _053_
*100 _054_
*101 _055_
*102 _056_
*103 _057_
*104 _058_
*105 _059_
*106 _060_
*107 _061_
*108 _062_
*109 _063_
*110 _064_
*111 _065_
*112 _066_
*113 _067_
*114 _068_
*115 _069_
*116 _070_
*117 _071_
*118 _072_
*119 _073_
*120 _074_
*121 _075_
*122 _076_
*123 _077_
*124 _078_
*125 _079_
*126 _080_
*127 _081_
*128 _082_
*129 _083_
*130 _084_
*131 _085_
*132 _086_
*133 _087_
*134 _088_
*135 _089_
*136 _090_
*137 _091_
*138 _092_
*139 _093_
*140 _094_
*141 _095_
*142 _096_
*143 _097_
*144 _098_
*145 _099_
*146 _100_
*147 _101_
*148 _102_
*149 _103_
*150 _104_
*151 _105_
*152 _106_
*153 _107_
*154 _108_
*155 _109_
*156 _110_
*157 _111_
*158 _112_
*159 _113_
*160 _114_
*161 _115_
*162 _116_
*163 _117_
*164 _118_
*165 _119_
*166 _120_
*167 _121_
*168 _122_
*169 _123_
*170 _124_
*171 _125_
*172 _126_
*173 _127_
*174 _128_
*175 _129_
*176 _130_
*177 _131_
*178 _132_
*179 _133_
*180 _134_
*181 _135_
*182 _136_
*183 _137_
*184 _138_
*185 _139_
*186 _140_
*187 _141_
*188 _142_
*189 clknet_0_clk
*190 clknet_2_0__leaf_clk
*191 clknet_2_1__leaf_clk
*192 clknet_2_2__leaf_clk
*193 clknet_2_3__leaf_clk
*194 net1
*195 net10
*196 net11
*197 net12
*198 net13
*199 net14
*200 net15
*201 net16
*202 net17
*203 net18
*204 net19
*205 net2
*206 net20
*207 net3
*208 net4
*209 net42
*210 net43
*211 net44
*212 net45
*213 net46
*214 net47
*215 net48
*216 net49
*217 net5
*218 net50
*219 net51
*220 net52
*221 net53
*222 net54
*223 net55
*224 net56
*225 net57
*226 net58
*227 net59
*228 net6
*229 net60
*230 net61
*231 net62
*232 net63
*233 net64
*234 net65
*235 net66
*236 net67
*237 net68
*238 net69
*239 net7
*240 net70
*241 net71
*242 net72
*243 net73
*244 net74
*245 net75
*246 net76
*247 net77
*248 net78
*249 net79
*250 net8
*251 net80
*252 net81
*253 net82
*254 net83
*255 net9
*256 perceptron\.bit_check
*257 perceptron\.bit_counter\[0\]
*258 perceptron\.bit_counter\[1\]
*259 perceptron\.bit_counter\[2\]
*260 perceptron\.bit_counter\[3\]
*261 perceptron\.bit_counter\[4\]
*262 perceptron\.bit_out
*263 perceptron\.old_sum\[0\]
*264 perceptron\.old_sum\[1\]
*265 perceptron\.old_sum\[2\]
*266 perceptron\.old_sum\[3\]
*267 perceptron\.old_sum\[4\]
*268 perceptron\.old_sum\[5\]
*269 perceptron\.old_sum\[6\]
*270 perceptron\.old_sum\[7\]
*271 perceptron\.old_sum\[8\]
*272 perceptron\.overflow
*273 perceptron\.overflow_check
*274 perceptron\.overflow_reset
*275 perceptron\.sum\[0\]
*276 perceptron\.sum\[1\]
*277 perceptron\.sum\[2\]
*278 perceptron\.sum\[3\]
*279 perceptron\.sum\[4\]
*280 perceptron\.sum\[5\]
*281 perceptron\.sum\[6\]
*282 perceptron\.sum\[7\]
*283 perceptron\.sum\[8\]
*284 perceptron\.sum_check
*285 perceptron\.trimmed_sum\[0\]
*286 perceptron\.trimmed_sum\[1\]
*287 perceptron\.trimmed_sum\[2\]
*288 perceptron\.trimmed_sum\[3\]
*289 perceptron\.trimmed_sum\[4\]
*290 perceptron\.trimmed_sum\[5\]
*291 perceptron\.trimmed_sum\[6\]
*292 perceptron\.trimmed_sum\[7\]
*293 FILLER_0_0_109
*294 FILLER_0_0_113
*295 FILLER_0_0_125
*296 FILLER_0_0_137
*297 FILLER_0_0_141
*298 FILLER_0_0_15
*299 FILLER_0_0_153
*300 FILLER_0_0_165
*301 FILLER_0_0_169
*302 FILLER_0_0_181
*303 FILLER_0_0_193
*304 FILLER_0_0_197
*305 FILLER_0_0_209
*306 FILLER_0_0_221
*307 FILLER_0_0_225
*308 FILLER_0_0_237
*309 FILLER_0_0_249
*310 FILLER_0_0_253
*311 FILLER_0_0_265
*312 FILLER_0_0_27
*313 FILLER_0_0_277
*314 FILLER_0_0_281
*315 FILLER_0_0_29
*316 FILLER_0_0_293
*317 FILLER_0_0_3
*318 FILLER_0_0_305
*319 FILLER_0_0_309
*320 FILLER_0_0_321
*321 FILLER_0_0_333
*322 FILLER_0_0_337
*323 FILLER_0_0_349
*324 FILLER_0_0_41
*325 FILLER_0_0_53
*326 FILLER_0_0_57
*327 FILLER_0_0_69
*328 FILLER_0_0_81
*329 FILLER_0_0_85
*330 FILLER_0_0_97
*331 FILLER_0_10_109
*332 FILLER_0_10_121
*333 FILLER_0_10_133
*334 FILLER_0_10_139
*335 FILLER_0_10_141
*336 FILLER_0_10_15
*337 FILLER_0_10_153
*338 FILLER_0_10_165
*339 FILLER_0_10_177
*340 FILLER_0_10_189
*341 FILLER_0_10_195
*342 FILLER_0_10_197
*343 FILLER_0_10_209
*344 FILLER_0_10_221
*345 FILLER_0_10_233
*346 FILLER_0_10_245
*347 FILLER_0_10_251
*348 FILLER_0_10_253
*349 FILLER_0_10_265
*350 FILLER_0_10_27
*351 FILLER_0_10_277
*352 FILLER_0_10_289
*353 FILLER_0_10_29
*354 FILLER_0_10_3
*355 FILLER_0_10_301
*356 FILLER_0_10_307
*357 FILLER_0_10_309
*358 FILLER_0_10_321
*359 FILLER_0_10_333
*360 FILLER_0_10_345
*361 FILLER_0_10_41
*362 FILLER_0_10_53
*363 FILLER_0_10_65
*364 FILLER_0_10_77
*365 FILLER_0_10_83
*366 FILLER_0_10_85
*367 FILLER_0_10_97
*368 FILLER_0_11_105
*369 FILLER_0_11_111
*370 FILLER_0_11_113
*371 FILLER_0_11_125
*372 FILLER_0_11_137
*373 FILLER_0_11_149
*374 FILLER_0_11_15
*375 FILLER_0_11_161
*376 FILLER_0_11_167
*377 FILLER_0_11_169
*378 FILLER_0_11_181
*379 FILLER_0_11_193
*380 FILLER_0_11_205
*381 FILLER_0_11_217
*382 FILLER_0_11_223
*383 FILLER_0_11_225
*384 FILLER_0_11_237
*385 FILLER_0_11_249
*386 FILLER_0_11_261
*387 FILLER_0_11_27
*388 FILLER_0_11_273
*389 FILLER_0_11_279
*390 FILLER_0_11_281
*391 FILLER_0_11_293
*392 FILLER_0_11_3
*393 FILLER_0_11_305
*394 FILLER_0_11_317
*395 FILLER_0_11_329
*396 FILLER_0_11_335
*397 FILLER_0_11_337
*398 FILLER_0_11_349
*399 FILLER_0_11_39
*400 FILLER_0_11_51
*401 FILLER_0_11_55
*402 FILLER_0_11_57
*403 FILLER_0_11_69
*404 FILLER_0_11_81
*405 FILLER_0_11_93
*406 FILLER_0_12_109
*407 FILLER_0_12_121
*408 FILLER_0_12_133
*409 FILLER_0_12_139
*410 FILLER_0_12_141
*411 FILLER_0_12_15
*412 FILLER_0_12_153
*413 FILLER_0_12_165
*414 FILLER_0_12_177
*415 FILLER_0_12_189
*416 FILLER_0_12_195
*417 FILLER_0_12_197
*418 FILLER_0_12_209
*419 FILLER_0_12_221
*420 FILLER_0_12_233
*421 FILLER_0_12_245
*422 FILLER_0_12_251
*423 FILLER_0_12_253
*424 FILLER_0_12_265
*425 FILLER_0_12_27
*426 FILLER_0_12_277
*427 FILLER_0_12_289
*428 FILLER_0_12_29
*429 FILLER_0_12_3
*430 FILLER_0_12_301
*431 FILLER_0_12_307
*432 FILLER_0_12_309
*433 FILLER_0_12_321
*434 FILLER_0_12_333
*435 FILLER_0_12_345
*436 FILLER_0_12_41
*437 FILLER_0_12_53
*438 FILLER_0_12_65
*439 FILLER_0_12_77
*440 FILLER_0_12_83
*441 FILLER_0_12_85
*442 FILLER_0_12_97
*443 FILLER_0_13_105
*444 FILLER_0_13_111
*445 FILLER_0_13_113
*446 FILLER_0_13_125
*447 FILLER_0_13_137
*448 FILLER_0_13_149
*449 FILLER_0_13_15
*450 FILLER_0_13_161
*451 FILLER_0_13_167
*452 FILLER_0_13_169
*453 FILLER_0_13_181
*454 FILLER_0_13_193
*455 FILLER_0_13_205
*456 FILLER_0_13_217
*457 FILLER_0_13_223
*458 FILLER_0_13_225
*459 FILLER_0_13_237
*460 FILLER_0_13_249
*461 FILLER_0_13_261
*462 FILLER_0_13_27
*463 FILLER_0_13_273
*464 FILLER_0_13_279
*465 FILLER_0_13_281
*466 FILLER_0_13_293
*467 FILLER_0_13_3
*468 FILLER_0_13_305
*469 FILLER_0_13_317
*470 FILLER_0_13_329
*471 FILLER_0_13_335
*472 FILLER_0_13_337
*473 FILLER_0_13_349
*474 FILLER_0_13_39
*475 FILLER_0_13_51
*476 FILLER_0_13_55
*477 FILLER_0_13_57
*478 FILLER_0_13_69
*479 FILLER_0_13_81
*480 FILLER_0_13_93
*481 FILLER_0_14_109
*482 FILLER_0_14_121
*483 FILLER_0_14_133
*484 FILLER_0_14_139
*485 FILLER_0_14_141
*486 FILLER_0_14_15
*487 FILLER_0_14_153
*488 FILLER_0_14_165
*489 FILLER_0_14_177
*490 FILLER_0_14_189
*491 FILLER_0_14_195
*492 FILLER_0_14_197
*493 FILLER_0_14_209
*494 FILLER_0_14_221
*495 FILLER_0_14_233
*496 FILLER_0_14_245
*497 FILLER_0_14_251
*498 FILLER_0_14_253
*499 FILLER_0_14_265
*500 FILLER_0_14_27
*501 FILLER_0_14_277
*502 FILLER_0_14_289
*503 FILLER_0_14_29
*504 FILLER_0_14_3
*505 FILLER_0_14_301
*506 FILLER_0_14_307
*507 FILLER_0_14_309
*508 FILLER_0_14_321
*509 FILLER_0_14_333
*510 FILLER_0_14_345
*511 FILLER_0_14_41
*512 FILLER_0_14_53
*513 FILLER_0_14_65
*514 FILLER_0_14_77
*515 FILLER_0_14_83
*516 FILLER_0_14_85
*517 FILLER_0_14_97
*518 FILLER_0_15_105
*519 FILLER_0_15_111
*520 FILLER_0_15_113
*521 FILLER_0_15_125
*522 FILLER_0_15_137
*523 FILLER_0_15_149
*524 FILLER_0_15_15
*525 FILLER_0_15_161
*526 FILLER_0_15_167
*527 FILLER_0_15_169
*528 FILLER_0_15_181
*529 FILLER_0_15_193
*530 FILLER_0_15_205
*531 FILLER_0_15_217
*532 FILLER_0_15_223
*533 FILLER_0_15_225
*534 FILLER_0_15_237
*535 FILLER_0_15_249
*536 FILLER_0_15_261
*537 FILLER_0_15_27
*538 FILLER_0_15_273
*539 FILLER_0_15_279
*540 FILLER_0_15_281
*541 FILLER_0_15_293
*542 FILLER_0_15_3
*543 FILLER_0_15_305
*544 FILLER_0_15_317
*545 FILLER_0_15_329
*546 FILLER_0_15_335
*547 FILLER_0_15_337
*548 FILLER_0_15_349
*549 FILLER_0_15_39
*550 FILLER_0_15_51
*551 FILLER_0_15_55
*552 FILLER_0_15_57
*553 FILLER_0_15_69
*554 FILLER_0_15_81
*555 FILLER_0_15_93
*556 FILLER_0_16_109
*557 FILLER_0_16_121
*558 FILLER_0_16_133
*559 FILLER_0_16_139
*560 FILLER_0_16_141
*561 FILLER_0_16_15
*562 FILLER_0_16_153
*563 FILLER_0_16_165
*564 FILLER_0_16_177
*565 FILLER_0_16_189
*566 FILLER_0_16_195
*567 FILLER_0_16_197
*568 FILLER_0_16_209
*569 FILLER_0_16_221
*570 FILLER_0_16_233
*571 FILLER_0_16_245
*572 FILLER_0_16_251
*573 FILLER_0_16_253
*574 FILLER_0_16_265
*575 FILLER_0_16_27
*576 FILLER_0_16_277
*577 FILLER_0_16_289
*578 FILLER_0_16_29
*579 FILLER_0_16_3
*580 FILLER_0_16_301
*581 FILLER_0_16_307
*582 FILLER_0_16_309
*583 FILLER_0_16_321
*584 FILLER_0_16_333
*585 FILLER_0_16_345
*586 FILLER_0_16_41
*587 FILLER_0_16_53
*588 FILLER_0_16_65
*589 FILLER_0_16_77
*590 FILLER_0_16_83
*591 FILLER_0_16_85
*592 FILLER_0_16_97
*593 FILLER_0_17_105
*594 FILLER_0_17_111
*595 FILLER_0_17_113
*596 FILLER_0_17_125
*597 FILLER_0_17_137
*598 FILLER_0_17_149
*599 FILLER_0_17_15
*600 FILLER_0_17_161
*601 FILLER_0_17_167
*602 FILLER_0_17_169
*603 FILLER_0_17_181
*604 FILLER_0_17_193
*605 FILLER_0_17_205
*606 FILLER_0_17_217
*607 FILLER_0_17_223
*608 FILLER_0_17_225
*609 FILLER_0_17_237
*610 FILLER_0_17_249
*611 FILLER_0_17_261
*612 FILLER_0_17_27
*613 FILLER_0_17_273
*614 FILLER_0_17_279
*615 FILLER_0_17_281
*616 FILLER_0_17_293
*617 FILLER_0_17_3
*618 FILLER_0_17_305
*619 FILLER_0_17_317
*620 FILLER_0_17_329
*621 FILLER_0_17_335
*622 FILLER_0_17_337
*623 FILLER_0_17_349
*624 FILLER_0_17_39
*625 FILLER_0_17_51
*626 FILLER_0_17_55
*627 FILLER_0_17_57
*628 FILLER_0_17_69
*629 FILLER_0_17_81
*630 FILLER_0_17_93
*631 FILLER_0_18_109
*632 FILLER_0_18_121
*633 FILLER_0_18_133
*634 FILLER_0_18_139
*635 FILLER_0_18_141
*636 FILLER_0_18_15
*637 FILLER_0_18_153
*638 FILLER_0_18_165
*639 FILLER_0_18_177
*640 FILLER_0_18_189
*641 FILLER_0_18_195
*642 FILLER_0_18_197
*643 FILLER_0_18_209
*644 FILLER_0_18_221
*645 FILLER_0_18_233
*646 FILLER_0_18_245
*647 FILLER_0_18_251
*648 FILLER_0_18_253
*649 FILLER_0_18_265
*650 FILLER_0_18_27
*651 FILLER_0_18_277
*652 FILLER_0_18_289
*653 FILLER_0_18_29
*654 FILLER_0_18_3
*655 FILLER_0_18_301
*656 FILLER_0_18_307
*657 FILLER_0_18_309
*658 FILLER_0_18_321
*659 FILLER_0_18_333
*660 FILLER_0_18_345
*661 FILLER_0_18_41
*662 FILLER_0_18_53
*663 FILLER_0_18_65
*664 FILLER_0_18_77
*665 FILLER_0_18_83
*666 FILLER_0_18_85
*667 FILLER_0_18_97
*668 FILLER_0_19_105
*669 FILLER_0_19_111
*670 FILLER_0_19_113
*671 FILLER_0_19_125
*672 FILLER_0_19_137
*673 FILLER_0_19_149
*674 FILLER_0_19_15
*675 FILLER_0_19_161
*676 FILLER_0_19_167
*677 FILLER_0_19_169
*678 FILLER_0_19_177
*679 FILLER_0_19_184
*680 FILLER_0_19_196
*681 FILLER_0_19_208
*682 FILLER_0_19_220
*683 FILLER_0_19_225
*684 FILLER_0_19_237
*685 FILLER_0_19_249
*686 FILLER_0_19_261
*687 FILLER_0_19_27
*688 FILLER_0_19_273
*689 FILLER_0_19_279
*690 FILLER_0_19_281
*691 FILLER_0_19_293
*692 FILLER_0_19_3
*693 FILLER_0_19_305
*694 FILLER_0_19_317
*695 FILLER_0_19_329
*696 FILLER_0_19_335
*697 FILLER_0_19_337
*698 FILLER_0_19_349
*699 FILLER_0_19_39
*700 FILLER_0_19_51
*701 FILLER_0_19_55
*702 FILLER_0_19_57
*703 FILLER_0_19_69
*704 FILLER_0_19_81
*705 FILLER_0_19_93
*706 FILLER_0_1_105
*707 FILLER_0_1_111
*708 FILLER_0_1_113
*709 FILLER_0_1_125
*710 FILLER_0_1_137
*711 FILLER_0_1_149
*712 FILLER_0_1_15
*713 FILLER_0_1_161
*714 FILLER_0_1_167
*715 FILLER_0_1_169
*716 FILLER_0_1_181
*717 FILLER_0_1_193
*718 FILLER_0_1_205
*719 FILLER_0_1_217
*720 FILLER_0_1_223
*721 FILLER_0_1_225
*722 FILLER_0_1_237
*723 FILLER_0_1_249
*724 FILLER_0_1_261
*725 FILLER_0_1_27
*726 FILLER_0_1_273
*727 FILLER_0_1_279
*728 FILLER_0_1_281
*729 FILLER_0_1_293
*730 FILLER_0_1_3
*731 FILLER_0_1_305
*732 FILLER_0_1_317
*733 FILLER_0_1_329
*734 FILLER_0_1_335
*735 FILLER_0_1_337
*736 FILLER_0_1_349
*737 FILLER_0_1_39
*738 FILLER_0_1_51
*739 FILLER_0_1_55
*740 FILLER_0_1_57
*741 FILLER_0_1_69
*742 FILLER_0_1_81
*743 FILLER_0_1_93
*744 FILLER_0_20_109
*745 FILLER_0_20_121
*746 FILLER_0_20_133
*747 FILLER_0_20_139
*748 FILLER_0_20_141
*749 FILLER_0_20_15
*750 FILLER_0_20_153
*751 FILLER_0_20_165
*752 FILLER_0_20_173
*753 FILLER_0_20_182
*754 FILLER_0_20_192
*755 FILLER_0_20_197
*756 FILLER_0_20_209
*757 FILLER_0_20_237
*758 FILLER_0_20_258
*759 FILLER_0_20_27
*760 FILLER_0_20_275
*761 FILLER_0_20_287
*762 FILLER_0_20_29
*763 FILLER_0_20_299
*764 FILLER_0_20_3
*765 FILLER_0_20_307
*766 FILLER_0_20_309
*767 FILLER_0_20_321
*768 FILLER_0_20_333
*769 FILLER_0_20_345
*770 FILLER_0_20_41
*771 FILLER_0_20_53
*772 FILLER_0_20_65
*773 FILLER_0_20_77
*774 FILLER_0_20_83
*775 FILLER_0_20_85
*776 FILLER_0_20_97
*777 FILLER_0_21_105
*778 FILLER_0_21_111
*779 FILLER_0_21_113
*780 FILLER_0_21_125
*781 FILLER_0_21_137
*782 FILLER_0_21_149
*783 FILLER_0_21_15
*784 FILLER_0_21_161
*785 FILLER_0_21_167
*786 FILLER_0_21_169
*787 FILLER_0_21_173
*788 FILLER_0_21_198
*789 FILLER_0_21_204
*790 FILLER_0_21_213
*791 FILLER_0_21_257
*792 FILLER_0_21_27
*793 FILLER_0_21_274
*794 FILLER_0_21_3
*795 FILLER_0_21_305
*796 FILLER_0_21_317
*797 FILLER_0_21_329
*798 FILLER_0_21_335
*799 FILLER_0_21_337
*800 FILLER_0_21_349
*801 FILLER_0_21_39
*802 FILLER_0_21_51
*803 FILLER_0_21_55
*804 FILLER_0_21_57
*805 FILLER_0_21_69
*806 FILLER_0_21_81
*807 FILLER_0_21_93
*808 FILLER_0_22_109
*809 FILLER_0_22_121
*810 FILLER_0_22_133
*811 FILLER_0_22_139
*812 FILLER_0_22_141
*813 FILLER_0_22_15
*814 FILLER_0_22_153
*815 FILLER_0_22_159
*816 FILLER_0_22_192
*817 FILLER_0_22_213
*818 FILLER_0_22_249
*819 FILLER_0_22_253
*820 FILLER_0_22_27
*821 FILLER_0_22_29
*822 FILLER_0_22_3
*823 FILLER_0_22_304
*824 FILLER_0_22_309
*825 FILLER_0_22_321
*826 FILLER_0_22_333
*827 FILLER_0_22_345
*828 FILLER_0_22_41
*829 FILLER_0_22_53
*830 FILLER_0_22_65
*831 FILLER_0_22_77
*832 FILLER_0_22_83
*833 FILLER_0_22_85
*834 FILLER_0_22_97
*835 FILLER_0_23_105
*836 FILLER_0_23_111
*837 FILLER_0_23_113
*838 FILLER_0_23_125
*839 FILLER_0_23_137
*840 FILLER_0_23_149
*841 FILLER_0_23_15
*842 FILLER_0_23_161
*843 FILLER_0_23_167
*844 FILLER_0_23_169
*845 FILLER_0_23_210
*846 FILLER_0_23_27
*847 FILLER_0_23_273
*848 FILLER_0_23_297
*849 FILLER_0_23_3
*850 FILLER_0_23_315
*851 FILLER_0_23_327
*852 FILLER_0_23_335
*853 FILLER_0_23_337
*854 FILLER_0_23_349
*855 FILLER_0_23_39
*856 FILLER_0_23_51
*857 FILLER_0_23_55
*858 FILLER_0_23_57
*859 FILLER_0_23_69
*860 FILLER_0_23_81
*861 FILLER_0_23_93
*862 FILLER_0_24_109
*863 FILLER_0_24_121
*864 FILLER_0_24_133
*865 FILLER_0_24_139
*866 FILLER_0_24_141
*867 FILLER_0_24_15
*868 FILLER_0_24_153
*869 FILLER_0_24_165
*870 FILLER_0_24_210
*871 FILLER_0_24_216
*872 FILLER_0_24_251
*873 FILLER_0_24_253
*874 FILLER_0_24_259
*875 FILLER_0_24_27
*876 FILLER_0_24_29
*877 FILLER_0_24_3
*878 FILLER_0_24_304
*879 FILLER_0_24_317
*880 FILLER_0_24_329
*881 FILLER_0_24_341
*882 FILLER_0_24_349
*883 FILLER_0_24_41
*884 FILLER_0_24_53
*885 FILLER_0_24_65
*886 FILLER_0_24_77
*887 FILLER_0_24_83
*888 FILLER_0_24_85
*889 FILLER_0_24_97
*890 FILLER_0_25_105
*891 FILLER_0_25_111
*892 FILLER_0_25_113
*893 FILLER_0_25_125
*894 FILLER_0_25_137
*895 FILLER_0_25_149
*896 FILLER_0_25_15
*897 FILLER_0_25_161
*898 FILLER_0_25_167
*899 FILLER_0_25_169
*900 FILLER_0_25_177
*901 FILLER_0_25_200
*902 FILLER_0_25_212
*903 FILLER_0_25_246
*904 FILLER_0_25_254
*905 FILLER_0_25_27
*906 FILLER_0_25_3
*907 FILLER_0_25_301
*908 FILLER_0_25_318
*909 FILLER_0_25_330
*910 FILLER_0_25_337
*911 FILLER_0_25_349
*912 FILLER_0_25_39
*913 FILLER_0_25_51
*914 FILLER_0_25_55
*915 FILLER_0_25_57
*916 FILLER_0_25_69
*917 FILLER_0_25_81
*918 FILLER_0_25_93
*919 FILLER_0_26_109
*920 FILLER_0_26_121
*921 FILLER_0_26_133
*922 FILLER_0_26_139
*923 FILLER_0_26_141
*924 FILLER_0_26_15
*925 FILLER_0_26_153
*926 FILLER_0_26_194
*927 FILLER_0_26_202
*928 FILLER_0_26_248
*929 FILLER_0_26_253
*930 FILLER_0_26_27
*931 FILLER_0_26_29
*932 FILLER_0_26_3
*933 FILLER_0_26_305
*934 FILLER_0_26_309
*935 FILLER_0_26_318
*936 FILLER_0_26_330
*937 FILLER_0_26_342
*938 FILLER_0_26_350
*939 FILLER_0_26_41
*940 FILLER_0_26_53
*941 FILLER_0_26_65
*942 FILLER_0_26_77
*943 FILLER_0_26_83
*944 FILLER_0_26_85
*945 FILLER_0_26_97
*946 FILLER_0_27_105
*947 FILLER_0_27_111
*948 FILLER_0_27_113
*949 FILLER_0_27_125
*950 FILLER_0_27_137
*951 FILLER_0_27_149
*952 FILLER_0_27_15
*953 FILLER_0_27_169
*954 FILLER_0_27_212
*955 FILLER_0_27_257
*956 FILLER_0_27_27
*957 FILLER_0_27_3
*958 FILLER_0_27_304
*959 FILLER_0_27_323
*960 FILLER_0_27_335
*961 FILLER_0_27_337
*962 FILLER_0_27_349
*963 FILLER_0_27_39
*964 FILLER_0_27_51
*965 FILLER_0_27_55
*966 FILLER_0_27_57
*967 FILLER_0_27_69
*968 FILLER_0_27_81
*969 FILLER_0_27_93
*970 FILLER_0_28_109
*971 FILLER_0_28_121
*972 FILLER_0_28_133
*973 FILLER_0_28_139
*974 FILLER_0_28_141
*975 FILLER_0_28_15
*976 FILLER_0_28_153
*977 FILLER_0_28_194
*978 FILLER_0_28_210
*979 FILLER_0_28_248
*980 FILLER_0_28_27
*981 FILLER_0_28_289
*982 FILLER_0_28_29
*983 FILLER_0_28_296
*984 FILLER_0_28_3
*985 FILLER_0_28_306
*986 FILLER_0_28_325
*987 FILLER_0_28_337
*988 FILLER_0_28_349
*989 FILLER_0_28_41
*990 FILLER_0_28_53
*991 FILLER_0_28_65
*992 FILLER_0_28_77
*993 FILLER_0_28_83
*994 FILLER_0_28_85
*995 FILLER_0_28_97
*996 FILLER_0_29_105
*997 FILLER_0_29_111
*998 FILLER_0_29_113
*999 FILLER_0_29_125
*1000 FILLER_0_29_137
*1001 FILLER_0_29_149
*1002 FILLER_0_29_15
*1003 FILLER_0_29_161
*1004 FILLER_0_29_167
*1005 FILLER_0_29_169
*1006 FILLER_0_29_210
*1007 FILLER_0_29_222
*1008 FILLER_0_29_238
*1009 FILLER_0_29_259
*1010 FILLER_0_29_27
*1011 FILLER_0_29_281
*1012 FILLER_0_29_296
*1013 FILLER_0_29_3
*1014 FILLER_0_29_303
*1015 FILLER_0_29_311
*1016 FILLER_0_29_322
*1017 FILLER_0_29_334
*1018 FILLER_0_29_337
*1019 FILLER_0_29_349
*1020 FILLER_0_29_39
*1021 FILLER_0_29_51
*1022 FILLER_0_29_55
*1023 FILLER_0_29_57
*1024 FILLER_0_29_69
*1025 FILLER_0_29_81
*1026 FILLER_0_29_93
*1027 FILLER_0_2_109
*1028 FILLER_0_2_121
*1029 FILLER_0_2_133
*1030 FILLER_0_2_139
*1031 FILLER_0_2_141
*1032 FILLER_0_2_15
*1033 FILLER_0_2_153
*1034 FILLER_0_2_165
*1035 FILLER_0_2_177
*1036 FILLER_0_2_189
*1037 FILLER_0_2_195
*1038 FILLER_0_2_197
*1039 FILLER_0_2_209
*1040 FILLER_0_2_221
*1041 FILLER_0_2_233
*1042 FILLER_0_2_245
*1043 FILLER_0_2_251
*1044 FILLER_0_2_253
*1045 FILLER_0_2_265
*1046 FILLER_0_2_27
*1047 FILLER_0_2_277
*1048 FILLER_0_2_289
*1049 FILLER_0_2_29
*1050 FILLER_0_2_3
*1051 FILLER_0_2_301
*1052 FILLER_0_2_307
*1053 FILLER_0_2_309
*1054 FILLER_0_2_321
*1055 FILLER_0_2_333
*1056 FILLER_0_2_345
*1057 FILLER_0_2_41
*1058 FILLER_0_2_53
*1059 FILLER_0_2_65
*1060 FILLER_0_2_77
*1061 FILLER_0_2_83
*1062 FILLER_0_2_85
*1063 FILLER_0_2_97
*1064 FILLER_0_30_109
*1065 FILLER_0_30_121
*1066 FILLER_0_30_133
*1067 FILLER_0_30_139
*1068 FILLER_0_30_141
*1069 FILLER_0_30_15
*1070 FILLER_0_30_153
*1071 FILLER_0_30_165
*1072 FILLER_0_30_177
*1073 FILLER_0_30_186
*1074 FILLER_0_30_206
*1075 FILLER_0_30_236
*1076 FILLER_0_30_244
*1077 FILLER_0_30_253
*1078 FILLER_0_30_27
*1079 FILLER_0_30_275
*1080 FILLER_0_30_283
*1081 FILLER_0_30_29
*1082 FILLER_0_30_3
*1083 FILLER_0_30_307
*1084 FILLER_0_30_309
*1085 FILLER_0_30_321
*1086 FILLER_0_30_333
*1087 FILLER_0_30_345
*1088 FILLER_0_30_41
*1089 FILLER_0_30_53
*1090 FILLER_0_30_65
*1091 FILLER_0_30_77
*1092 FILLER_0_30_83
*1093 FILLER_0_30_85
*1094 FILLER_0_30_97
*1095 FILLER_0_31_105
*1096 FILLER_0_31_111
*1097 FILLER_0_31_113
*1098 FILLER_0_31_125
*1099 FILLER_0_31_137
*1100 FILLER_0_31_149
*1101 FILLER_0_31_15
*1102 FILLER_0_31_161
*1103 FILLER_0_31_167
*1104 FILLER_0_31_169
*1105 FILLER_0_31_203
*1106 FILLER_0_31_207
*1107 FILLER_0_31_231
*1108 FILLER_0_31_27
*1109 FILLER_0_31_3
*1110 FILLER_0_31_330
*1111 FILLER_0_31_337
*1112 FILLER_0_31_349
*1113 FILLER_0_31_39
*1114 FILLER_0_31_51
*1115 FILLER_0_31_55
*1116 FILLER_0_31_57
*1117 FILLER_0_31_69
*1118 FILLER_0_31_81
*1119 FILLER_0_31_93
*1120 FILLER_0_32_109
*1121 FILLER_0_32_121
*1122 FILLER_0_32_133
*1123 FILLER_0_32_139
*1124 FILLER_0_32_141
*1125 FILLER_0_32_15
*1126 FILLER_0_32_153
*1127 FILLER_0_32_165
*1128 FILLER_0_32_195
*1129 FILLER_0_32_197
*1130 FILLER_0_32_209
*1131 FILLER_0_32_217
*1132 FILLER_0_32_240
*1133 FILLER_0_32_251
*1134 FILLER_0_32_266
*1135 FILLER_0_32_27
*1136 FILLER_0_32_29
*1137 FILLER_0_32_3
*1138 FILLER_0_32_317
*1139 FILLER_0_32_329
*1140 FILLER_0_32_341
*1141 FILLER_0_32_349
*1142 FILLER_0_32_41
*1143 FILLER_0_32_53
*1144 FILLER_0_32_65
*1145 FILLER_0_32_77
*1146 FILLER_0_32_83
*1147 FILLER_0_32_85
*1148 FILLER_0_32_97
*1149 FILLER_0_33_105
*1150 FILLER_0_33_111
*1151 FILLER_0_33_113
*1152 FILLER_0_33_125
*1153 FILLER_0_33_137
*1154 FILLER_0_33_149
*1155 FILLER_0_33_15
*1156 FILLER_0_33_161
*1157 FILLER_0_33_167
*1158 FILLER_0_33_169
*1159 FILLER_0_33_176
*1160 FILLER_0_33_203
*1161 FILLER_0_33_211
*1162 FILLER_0_33_217
*1163 FILLER_0_33_223
*1164 FILLER_0_33_231
*1165 FILLER_0_33_243
*1166 FILLER_0_33_251
*1167 FILLER_0_33_264
*1168 FILLER_0_33_27
*1169 FILLER_0_33_275
*1170 FILLER_0_33_279
*1171 FILLER_0_33_281
*1172 FILLER_0_33_289
*1173 FILLER_0_33_3
*1174 FILLER_0_33_309
*1175 FILLER_0_33_321
*1176 FILLER_0_33_333
*1177 FILLER_0_33_337
*1178 FILLER_0_33_349
*1179 FILLER_0_33_39
*1180 FILLER_0_33_51
*1181 FILLER_0_33_55
*1182 FILLER_0_33_57
*1183 FILLER_0_33_69
*1184 FILLER_0_33_81
*1185 FILLER_0_33_93
*1186 FILLER_0_34_109
*1187 FILLER_0_34_121
*1188 FILLER_0_34_133
*1189 FILLER_0_34_139
*1190 FILLER_0_34_141
*1191 FILLER_0_34_15
*1192 FILLER_0_34_153
*1193 FILLER_0_34_165
*1194 FILLER_0_34_177
*1195 FILLER_0_34_185
*1196 FILLER_0_34_193
*1197 FILLER_0_34_197
*1198 FILLER_0_34_209
*1199 FILLER_0_34_227
*1200 FILLER_0_34_231
*1201 FILLER_0_34_242
*1202 FILLER_0_34_253
*1203 FILLER_0_34_261
*1204 FILLER_0_34_27
*1205 FILLER_0_34_270
*1206 FILLER_0_34_282
*1207 FILLER_0_34_29
*1208 FILLER_0_34_294
*1209 FILLER_0_34_3
*1210 FILLER_0_34_306
*1211 FILLER_0_34_309
*1212 FILLER_0_34_321
*1213 FILLER_0_34_333
*1214 FILLER_0_34_345
*1215 FILLER_0_34_41
*1216 FILLER_0_34_53
*1217 FILLER_0_34_65
*1218 FILLER_0_34_77
*1219 FILLER_0_34_83
*1220 FILLER_0_34_85
*1221 FILLER_0_34_97
*1222 FILLER_0_35_105
*1223 FILLER_0_35_111
*1224 FILLER_0_35_113
*1225 FILLER_0_35_125
*1226 FILLER_0_35_137
*1227 FILLER_0_35_149
*1228 FILLER_0_35_15
*1229 FILLER_0_35_161
*1230 FILLER_0_35_167
*1231 FILLER_0_35_169
*1232 FILLER_0_35_177
*1233 FILLER_0_35_203
*1234 FILLER_0_35_225
*1235 FILLER_0_35_235
*1236 FILLER_0_35_253
*1237 FILLER_0_35_265
*1238 FILLER_0_35_27
*1239 FILLER_0_35_276
*1240 FILLER_0_35_281
*1241 FILLER_0_35_289
*1242 FILLER_0_35_295
*1243 FILLER_0_35_3
*1244 FILLER_0_35_307
*1245 FILLER_0_35_319
*1246 FILLER_0_35_331
*1247 FILLER_0_35_335
*1248 FILLER_0_35_337
*1249 FILLER_0_35_349
*1250 FILLER_0_35_39
*1251 FILLER_0_35_51
*1252 FILLER_0_35_55
*1253 FILLER_0_35_57
*1254 FILLER_0_35_69
*1255 FILLER_0_35_81
*1256 FILLER_0_35_93
*1257 FILLER_0_36_109
*1258 FILLER_0_36_121
*1259 FILLER_0_36_133
*1260 FILLER_0_36_139
*1261 FILLER_0_36_141
*1262 FILLER_0_36_15
*1263 FILLER_0_36_153
*1264 FILLER_0_36_165
*1265 FILLER_0_36_195
*1266 FILLER_0_36_209
*1267 FILLER_0_36_213
*1268 FILLER_0_36_235
*1269 FILLER_0_36_253
*1270 FILLER_0_36_27
*1271 FILLER_0_36_281
*1272 FILLER_0_36_29
*1273 FILLER_0_36_293
*1274 FILLER_0_36_3
*1275 FILLER_0_36_305
*1276 FILLER_0_36_309
*1277 FILLER_0_36_321
*1278 FILLER_0_36_333
*1279 FILLER_0_36_345
*1280 FILLER_0_36_41
*1281 FILLER_0_36_53
*1282 FILLER_0_36_65
*1283 FILLER_0_36_77
*1284 FILLER_0_36_83
*1285 FILLER_0_36_85
*1286 FILLER_0_36_97
*1287 FILLER_0_37_105
*1288 FILLER_0_37_111
*1289 FILLER_0_37_113
*1290 FILLER_0_37_125
*1291 FILLER_0_37_137
*1292 FILLER_0_37_149
*1293 FILLER_0_37_15
*1294 FILLER_0_37_161
*1295 FILLER_0_37_167
*1296 FILLER_0_37_169
*1297 FILLER_0_37_177
*1298 FILLER_0_37_182
*1299 FILLER_0_37_212
*1300 FILLER_0_37_219
*1301 FILLER_0_37_223
*1302 FILLER_0_37_237
*1303 FILLER_0_37_27
*1304 FILLER_0_37_278
*1305 FILLER_0_37_3
*1306 FILLER_0_37_302
*1307 FILLER_0_37_314
*1308 FILLER_0_37_326
*1309 FILLER_0_37_334
*1310 FILLER_0_37_337
*1311 FILLER_0_37_349
*1312 FILLER_0_37_39
*1313 FILLER_0_37_51
*1314 FILLER_0_37_55
*1315 FILLER_0_37_57
*1316 FILLER_0_37_69
*1317 FILLER_0_37_81
*1318 FILLER_0_37_93
*1319 FILLER_0_38_104
*1320 FILLER_0_38_110
*1321 FILLER_0_38_116
*1322 FILLER_0_38_122
*1323 FILLER_0_38_128
*1324 FILLER_0_38_134
*1325 FILLER_0_38_141
*1326 FILLER_0_38_146
*1327 FILLER_0_38_15
*1328 FILLER_0_38_152
*1329 FILLER_0_38_158
*1330 FILLER_0_38_164
*1331 FILLER_0_38_172
*1332 FILLER_0_38_176
*1333 FILLER_0_38_184
*1334 FILLER_0_38_188
*1335 FILLER_0_38_200
*1336 FILLER_0_38_208
*1337 FILLER_0_38_212
*1338 FILLER_0_38_218
*1339 FILLER_0_38_225
*1340 FILLER_0_38_230
*1341 FILLER_0_38_236
*1342 FILLER_0_38_242
*1343 FILLER_0_38_248
*1344 FILLER_0_38_27
*1345 FILLER_0_38_279
*1346 FILLER_0_38_29
*1347 FILLER_0_38_296
*1348 FILLER_0_38_3
*1349 FILLER_0_38_302
*1350 FILLER_0_38_309
*1351 FILLER_0_38_321
*1352 FILLER_0_38_333
*1353 FILLER_0_38_337
*1354 FILLER_0_38_349
*1355 FILLER_0_38_41
*1356 FILLER_0_38_53
*1357 FILLER_0_38_57
*1358 FILLER_0_38_68
*1359 FILLER_0_38_74
*1360 FILLER_0_38_80
*1361 FILLER_0_38_88
*1362 FILLER_0_38_92
*1363 FILLER_0_38_98
*1364 FILLER_0_3_105
*1365 FILLER_0_3_111
*1366 FILLER_0_3_113
*1367 FILLER_0_3_125
*1368 FILLER_0_3_137
*1369 FILLER_0_3_149
*1370 FILLER_0_3_15
*1371 FILLER_0_3_161
*1372 FILLER_0_3_167
*1373 FILLER_0_3_169
*1374 FILLER_0_3_181
*1375 FILLER_0_3_193
*1376 FILLER_0_3_205
*1377 FILLER_0_3_217
*1378 FILLER_0_3_223
*1379 FILLER_0_3_225
*1380 FILLER_0_3_237
*1381 FILLER_0_3_249
*1382 FILLER_0_3_261
*1383 FILLER_0_3_27
*1384 FILLER_0_3_273
*1385 FILLER_0_3_279
*1386 FILLER_0_3_281
*1387 FILLER_0_3_293
*1388 FILLER_0_3_3
*1389 FILLER_0_3_305
*1390 FILLER_0_3_317
*1391 FILLER_0_3_329
*1392 FILLER_0_3_335
*1393 FILLER_0_3_337
*1394 FILLER_0_3_349
*1395 FILLER_0_3_39
*1396 FILLER_0_3_51
*1397 FILLER_0_3_55
*1398 FILLER_0_3_57
*1399 FILLER_0_3_69
*1400 FILLER_0_3_81
*1401 FILLER_0_3_93
*1402 FILLER_0_4_109
*1403 FILLER_0_4_121
*1404 FILLER_0_4_133
*1405 FILLER_0_4_139
*1406 FILLER_0_4_141
*1407 FILLER_0_4_15
*1408 FILLER_0_4_153
*1409 FILLER_0_4_165
*1410 FILLER_0_4_177
*1411 FILLER_0_4_189
*1412 FILLER_0_4_195
*1413 FILLER_0_4_197
*1414 FILLER_0_4_209
*1415 FILLER_0_4_221
*1416 FILLER_0_4_233
*1417 FILLER_0_4_245
*1418 FILLER_0_4_251
*1419 FILLER_0_4_253
*1420 FILLER_0_4_265
*1421 FILLER_0_4_27
*1422 FILLER_0_4_277
*1423 FILLER_0_4_289
*1424 FILLER_0_4_29
*1425 FILLER_0_4_3
*1426 FILLER_0_4_301
*1427 FILLER_0_4_307
*1428 FILLER_0_4_309
*1429 FILLER_0_4_321
*1430 FILLER_0_4_333
*1431 FILLER_0_4_345
*1432 FILLER_0_4_41
*1433 FILLER_0_4_53
*1434 FILLER_0_4_65
*1435 FILLER_0_4_77
*1436 FILLER_0_4_83
*1437 FILLER_0_4_85
*1438 FILLER_0_4_97
*1439 FILLER_0_5_105
*1440 FILLER_0_5_111
*1441 FILLER_0_5_113
*1442 FILLER_0_5_125
*1443 FILLER_0_5_137
*1444 FILLER_0_5_149
*1445 FILLER_0_5_15
*1446 FILLER_0_5_161
*1447 FILLER_0_5_167
*1448 FILLER_0_5_169
*1449 FILLER_0_5_181
*1450 FILLER_0_5_193
*1451 FILLER_0_5_205
*1452 FILLER_0_5_217
*1453 FILLER_0_5_223
*1454 FILLER_0_5_225
*1455 FILLER_0_5_237
*1456 FILLER_0_5_249
*1457 FILLER_0_5_261
*1458 FILLER_0_5_27
*1459 FILLER_0_5_273
*1460 FILLER_0_5_279
*1461 FILLER_0_5_281
*1462 FILLER_0_5_293
*1463 FILLER_0_5_3
*1464 FILLER_0_5_305
*1465 FILLER_0_5_317
*1466 FILLER_0_5_329
*1467 FILLER_0_5_335
*1468 FILLER_0_5_337
*1469 FILLER_0_5_349
*1470 FILLER_0_5_39
*1471 FILLER_0_5_51
*1472 FILLER_0_5_55
*1473 FILLER_0_5_57
*1474 FILLER_0_5_69
*1475 FILLER_0_5_81
*1476 FILLER_0_5_93
*1477 FILLER_0_6_109
*1478 FILLER_0_6_121
*1479 FILLER_0_6_133
*1480 FILLER_0_6_139
*1481 FILLER_0_6_141
*1482 FILLER_0_6_15
*1483 FILLER_0_6_153
*1484 FILLER_0_6_165
*1485 FILLER_0_6_177
*1486 FILLER_0_6_189
*1487 FILLER_0_6_195
*1488 FILLER_0_6_197
*1489 FILLER_0_6_209
*1490 FILLER_0_6_221
*1491 FILLER_0_6_233
*1492 FILLER_0_6_245
*1493 FILLER_0_6_251
*1494 FILLER_0_6_253
*1495 FILLER_0_6_265
*1496 FILLER_0_6_27
*1497 FILLER_0_6_277
*1498 FILLER_0_6_289
*1499 FILLER_0_6_29
*1500 FILLER_0_6_3
*1501 FILLER_0_6_301
*1502 FILLER_0_6_307
*1503 FILLER_0_6_309
*1504 FILLER_0_6_321
*1505 FILLER_0_6_333
*1506 FILLER_0_6_345
*1507 FILLER_0_6_41
*1508 FILLER_0_6_53
*1509 FILLER_0_6_65
*1510 FILLER_0_6_77
*1511 FILLER_0_6_83
*1512 FILLER_0_6_85
*1513 FILLER_0_6_97
*1514 FILLER_0_7_105
*1515 FILLER_0_7_111
*1516 FILLER_0_7_113
*1517 FILLER_0_7_125
*1518 FILLER_0_7_137
*1519 FILLER_0_7_149
*1520 FILLER_0_7_15
*1521 FILLER_0_7_161
*1522 FILLER_0_7_167
*1523 FILLER_0_7_169
*1524 FILLER_0_7_181
*1525 FILLER_0_7_193
*1526 FILLER_0_7_205
*1527 FILLER_0_7_217