*SPEF "ieee 1481-1999"
*DESIGN "tt_um_algofoogle_vga_spi_rom"
*DATE "11:11:11 Fri 11 11, 1111"
*VENDOR "OpenRCX"
*PROGRAM "Parallel Extraction"
*VERSION "1.0"
*DESIGN_FLOW "NAME_SCOPE LOCAL" "PIN_CAP NONE"
*DIVIDER /
*DELIMITER :
*BUS_DELIMITER []
*T_UNIT 1 NS
*C_UNIT 1 PF
*R_UNIT 1 OHM
*L_UNIT 1 HENRY

*NAME_MAP
*3 clk
*4 ena
*5 rst_n
*6 ui_in[0]
*7 ui_in[1]
*8 ui_in[2]
*9 ui_in[3]
*10 ui_in[4]
*11 ui_in[5]
*12 ui_in[6]
*13 ui_in[7]
*14 uio_in[0]
*15 uio_in[1]
*16 uio_in[2]
*17 uio_in[3]
*18 uio_in[4]
*19 uio_in[5]
*20 uio_in[6]
*21 uio_in[7]
*22 net18
*23 uio_oe[1]
*24 net12
*25 net19
*26 net20
*27 uio_oe[5]
*28 net13
*29 net14
*30 uio_out[0]
*31 uio_out[1]
*32 net15
*33 uio_out[3]
*34 uio_out[4]
*35 net21
*36 net16
*37 net17
*38 uo_out[0]
*39 uo_out[1]
*40 uo_out[2]
*41 uo_out[3]
*42 uo_out[4]
*43 uo_out[5]
*44 uo_out[6]
*45 uo_out[7]
*46 _0136_
*47 _0137_
*48 _0138_
*49 _0139_
*50 _0140_
*51 _0141_
*52 _0142_
*53 _0143_
*54 _0144_
*55 _0145_
*56 _0146_
*57 _0147_
*58 _0148_
*59 _0149_
*60 _0150_
*61 _0151_
*62 _0152_
*63 _0153_
*64 _0154_
*65 _0155_
*66 _0156_
*67 _0157_
*68 _0158_
*69 _0159_
*70 _0160_
*71 _0161_
*72 _0162_
*73 _0163_
*74 _0164_
*75 _0165_
*76 _0166_
*77 _0167_
*78 _0168_
*79 _0169_
*80 _0170_
*81 _0171_
*82 _0172_
*83 _0173_
*84 _0174_
*85 _0175_
*86 _0176_
*87 _0177_
*88 _0178_
*89 _0179_
*90 _0180_
*91 _0181_
*92 _0182_
*93 _0183_
*94 _0184_
*95 _0185_
*96 _0186_
*97 _0187_
*98 _0188_
*99 _0189_
*100 _0190_
*101 _0191_
*102 _0192_
*103 _0193_
*104 _0194_
*105 _0195_
*106 _0196_
*107 _0197_
*108 _0198_
*109 _0199_
*110 _0200_
*111 _0201_
*112 _0202_
*113 _0203_
*114 _0204_
*115 _0205_
*116 _0206_
*117 _0207_
*118 _0208_
*119 _0209_
*120 _0210_
*121 _0211_
*122 _0212_
*123 _0213_
*124 _0214_
*125 _0215_
*126 _0216_
*127 _0217_
*128 _0218_
*129 _0219_
*130 _0220_
*131 _0221_
*132 _0222_
*133 _0223_
*134 _0224_
*135 _0225_
*136 _0226_
*137 _0227_
*138 _0228_
*139 _0229_
*140 _0230_
*141 _0231_
*142 _0232_
*143 _0233_
*144 _0234_
*145 _0235_
*146 _0236_
*147 _0237_
*148 _0238_
*149 _0239_
*150 _0240_
*151 _0241_
*152 _0242_
*153 _0243_
*154 _0244_
*155 _0245_
*156 _0246_
*157 _0247_
*158 _0248_
*159 _0249_
*160 _0250_
*161 _0251_
*162 _0252_
*163 _0253_
*164 _0254_
*165 _0255_
*166 _0256_
*167 _0257_
*168 _0258_
*169 _0259_
*170 _0260_
*171 _0261_
*172 _0262_
*173 _0263_
*174 _0264_
*175 _0265_
*176 _0266_
*177 _0267_
*178 _0268_
*179 _0269_
*180 _0270_
*181 _0271_
*182 _0272_
*183 _0273_
*184 _0274_
*185 _0275_
*186 _0276_
*187 _0277_
*188 _0278_
*189 _0279_
*190 _0280_
*191 _0281_
*192 _0282_
*193 _0283_
*194 _0284_
*195 _0285_
*196 _0286_
*197 _0287_
*198 _0288_
*199 _0289_
*200 _0290_
*201 _0291_
*202 _0292_
*203 _0293_
*204 _0294_
*205 _0295_
*206 _0296_
*207 _0297_
*208 _0298_
*209 _0299_
*210 _0300_
*211 _0301_
*212 _0302_
*213 _0303_
*214 _0304_
*215 _0305_
*216 _0306_
*217 _0307_
*218 _0308_
*219 _0309_
*220 _0310_
*221 _0311_
*222 _0312_
*223 _0313_
*224 _0314_
*225 _0315_
*226 _0316_
*227 _0317_
*228 _0318_
*229 _0319_
*230 _0320_
*231 _0321_
*232 _0322_
*233 _0323_
*234 _0324_
*235 _0325_
*236 _0326_
*237 _0327_
*238 _0328_
*239 _0329_
*240 _0330_
*241 _0331_
*242 _0332_
*243 _0333_
*244 _0334_
*245 _0335_
*246 _0336_
*247 _0337_
*248 _0338_
*249 _0339_
*250 _0340_
*251 _0341_
*252 _0342_
*253 _0343_
*254 _0344_
*255 _0345_
*256 _0346_
*257 _0347_
*258 _0348_
*259 _0349_
*260 _0350_
*261 _0351_
*262 _0352_
*263 _0353_
*264 _0354_
*265 _0355_
*266 _0356_
*267 _0357_
*268 _0358_
*269 _0359_
*270 _0360_
*271 _0361_
*272 _0362_
*273 _0363_
*274 _0364_
*275 _0365_
*276 _0366_
*277 _0367_
*278 _0368_
*279 _0369_
*280 _0370_
*281 _0371_
*282 _0372_
*283 _0373_
*284 _0374_
*285 _0375_
*286 _0376_
*287 _0377_
*288 _0378_
*289 _0379_
*290 _0380_
*291 _0381_
*292 _0382_
*293 _0383_
*294 _0384_
*295 _0385_
*296 _0386_
*297 _0387_
*298 _0388_
*299 _0389_
*300 _0390_
*301 _0391_
*302 _0392_
*303 _0393_
*304 _0394_
*305 _0395_
*306 _0396_
*307 _0397_
*308 _0398_
*309 _0399_
*310 _0400_
*311 _0401_
*312 _0402_
*313 _0403_
*314 _0404_
*315 _0405_
*316 _0406_
*317 _0407_
*318 _0408_
*319 _0409_
*320 _0410_
*321 _0411_
*322 _0412_
*323 _0413_
*324 _0414_
*325 _0415_
*326 _0416_
*327 _0417_
*328 _0418_
*329 _0419_
*330 _0420_
*331 _0421_
*332 _0422_
*333 _0423_
*334 _0424_
*335 _0425_
*336 _0426_
*337 _0427_
*338 _0428_
*339 _0429_
*340 _0430_
*341 _0431_
*342 _0432_
*343 _0433_
*344 _0434_
*345 _0435_
*346 _0436_
*347 _0437_
*348 _0438_
*349 _0439_
*350 _0440_
*351 _0441_
*352 _0442_
*353 _0443_
*354 _0444_
*355 _0445_
*356 _0446_
*357 _0447_
*358 _0448_
*359 _0449_
*360 _0450_
*361 _0451_
*362 _0452_
*363 _0453_
*364 _0454_
*365 _0455_
*366 _0456_
*367 _0457_
*368 _0458_
*369 _0459_
*370 _0460_
*371 _0461_
*372 _0462_
*373 _0463_
*374 _0464_
*375 _0465_
*376 _0466_
*377 _0467_
*378 _0468_
*379 _0469_
*380 _0470_
*381 _0471_
*382 _0472_
*383 _0473_
*384 _0474_
*385 _0475_
*386 _0476_
*387 _0477_
*388 _0478_
*389 _0479_
*390 _0480_
*391 _0481_
*392 _0482_
*393 _0483_
*394 _0484_
*395 _0485_
*396 _0486_
*397 _0487_
*398 _0488_
*399 _0489_
*400 _0490_
*401 _0491_
*402 _0492_
*403 _0493_
*404 _0494_
*405 _0495_
*406 _0496_
*407 _0497_
*408 _0498_
*409 _0499_
*410 _0500_
*411 _0501_
*412 _0502_
*413 _0503_
*414 _0504_
*415 _0505_
*416 _0506_
*417 _0507_
*418 _0508_
*419 _0509_
*420 _0510_
*421 _0511_
*422 _0512_
*423 _0513_
*424 _0514_
*425 _0515_
*426 _0516_
*427 _0517_
*428 _0518_
*429 _0519_
*430 _0520_
*431 _0521_
*432 _0522_
*433 _0523_
*434 _0524_
*435 _0525_
*436 _0526_
*437 _0527_
*438 _0528_
*439 _0529_
*440 _0530_
*441 _0531_
*442 _0532_
*443 _0533_
*444 _0534_
*445 _0535_
*446 _0536_
*447 _0537_
*448 _0538_
*449 _0539_
*450 _0540_
*451 _0541_
*452 _0542_
*453 _0543_
*454 _0544_
*455 _0545_
*456 _0546_
*457 _0547_
*458 _0548_
*459 _0549_
*460 _0550_
*461 _0551_
*462 _0552_
*463 _0553_
*464 _0554_
*465 _0555_
*466 _0556_
*467 _0557_
*468 _0558_
*469 _0559_
*470 _0560_
*471 _0561_
*472 _0562_
*473 _0563_
*474 _0564_
*475 _0565_
*476 _0566_
*477 _0567_
*478 _0568_
*479 _0569_
*480 _0570_
*481 _0571_
*482 _0572_
*483 _0573_
*484 _0574_
*485 _0575_
*486 _0576_
*487 _0577_
*488 _0578_
*489 _0579_
*490 _0580_
*491 _0581_
*492 _0582_
*493 _0583_
*494 _0584_
*495 _0585_
*496 _0586_
*497 _0587_
*498 _0588_
*499 _0589_
*500 _0590_
*501 _0591_
*502 _0592_
*503 _0593_
*504 _0594_
*505 _0595_
*506 _0596_
*507 _0597_
*508 _0598_
*509 _0599_
*510 _0600_
*511 _0601_
*512 _0602_
*513 _0603_
*514 _0604_
*515 _0605_
*516 _0606_
*517 _0607_
*518 _0608_
*519 _0609_
*520 _0610_
*521 _0611_
*522 _0612_
*523 _0613_
*524 _0614_
*525 _0615_
*526 _0616_
*527 _0617_
*528 _0618_
*529 _0619_
*530 _0620_
*531 _0621_
*532 _0622_
*533 _0623_
*534 _0624_
*535 _0625_
*536 _0626_
*537 _0627_
*538 _0628_
*539 _0629_
*540 _0630_
*541 _0631_
*542 _0632_
*543 _0633_
*544 _0634_
*545 _0635_
*546 _0636_
*547 _0637_
*548 _0638_
*549 _0639_
*550 _0640_
*551 _0641_
*552 _0642_
*553 _0643_
*554 _0644_
*555 _0645_
*556 _0646_
*557 _0647_
*558 _0648_
*559 _0649_
*560 _0650_
*561 _0651_
*562 _0652_
*563 _0653_
*564 _0654_
*565 _0655_
*566 _0656_
*567 _0657_
*568 _0658_
*569 _0659_
*570 _0660_
*571 _0661_
*572 _0662_
*573 _0663_
*574 _0664_
*575 _0665_
*576 _0666_
*577 _0667_
*578 _0668_
*579 _0669_
*580 _0670_
*581 _0671_
*582 _0672_
*583 _0673_
*584 _0674_
*585 _0675_
*586 _0676_
*587 _0677_
*588 _0678_
*589 _0679_
*590 _0680_
*591 _0681_
*592 _0682_
*593 _0683_
*594 _0684_
*595 _0685_
*596 _0686_
*597 _0687_
*598 _0688_
*599 _0689_
*600 _0690_
*601 _0691_
*602 _0692_
*603 _0693_
*604 _0694_
*605 _0695_
*606 _0696_
*607 _0697_
*608 _0698_
*609 _0699_
*610 _0700_
*611 _0701_
*612 _0702_
*613 _0703_
*614 _0704_
*615 _0705_
*616 _0706_
*617 _0707_
*618 _0708_
*619 _0709_
*620 _0710_
*621 _0711_
*622 _0712_
*623 _0713_
*624 _0714_
*625 _0715_
*626 _0716_
*627 _0717_
*628 _0718_
*629 _0719_
*630 _0720_
*631 _0721_
*632 _0722_
*633 _0723_
*634 _0724_
*635 _0725_
*636 _0726_
*637 _0727_
*638 _0728_
*639 _0729_
*640 _0730_
*641 _0731_
*642 _0732_
*643 _0733_
*644 _0734_
*645 _0735_
*646 _0736_
*647 _0737_
*648 _0738_
*649 _0739_
*650 _0740_
*651 _0741_
*652 _0742_
*653 _0743_
*654 _0744_
*655 _0745_
*656 _0746_
*657 _0747_
*658 _0748_
*659 _0749_
*660 _0750_
*661 _0751_
*662 _0752_
*663 _0753_
*664 _0754_
*665 _0755_
*666 _0756_
*667 _0757_
*668 _0758_
*669 _0759_
*670 _0760_
*671 _0761_
*672 _0762_
*673 _0763_
*674 _0764_
*675 _0765_
*676 _0766_
*677 _0767_
*678 _0768_
*679 _0769_
*680 clknet_0__0307_
*681 clknet_0__0308_
*682 clknet_0__0309_
*683 clknet_0__0310_
*684 clknet_0__0311_
*685 clknet_0__0312_
*686 clknet_0__0313_
*687 clknet_0__0314_
*688 clknet_0__0315_
*689 clknet_0__0316_
*690 clknet_0__0317_
*691 clknet_0__0318_
*692 clknet_0__0319_
*693 clknet_0__0320_
*694 clknet_0__0321_
*695 clknet_0_clk
*696 clknet_1_0__leaf__0307_
*697 clknet_1_0__leaf__0308_
*698 clknet_1_0__leaf__0309_
*699 clknet_1_0__leaf__0310_
*700 clknet_1_0__leaf__0311_
*701 clknet_1_0__leaf__0312_
*702 clknet_1_0__leaf__0313_
*703 clknet_1_0__leaf__0314_
*704 clknet_1_0__leaf__0315_
*705 clknet_1_0__leaf__0316_
*706 clknet_1_0__leaf__0317_
*707 clknet_1_0__leaf__0318_
*708 clknet_1_0__leaf__0319_
*709 clknet_1_0__leaf__0320_
*710 clknet_1_0__leaf__0321_
*711 clknet_1_1__leaf__0307_
*712 clknet_1_1__leaf__0308_
*713 clknet_1_1__leaf__0309_
*714 clknet_1_1__leaf__0310_
*715 clknet_1_1__leaf__0311_
*716 clknet_1_1__leaf__0312_
*717 clknet_1_1__leaf__0313_
*718 clknet_1_1__leaf__0314_
*719 clknet_1_1__leaf__0315_
*720 clknet_1_1__leaf__0316_
*721 clknet_1_1__leaf__0317_
*722 clknet_1_1__leaf__0318_
*723 clknet_1_1__leaf__0319_
*724 clknet_1_1__leaf__0320_
*725 clknet_1_1__leaf__0321_
*726 clknet_2_0__leaf_clk
*727 clknet_2_1__leaf_clk
*728 clknet_2_2__leaf_clk
*729 clknet_2_3__leaf_clk
*730 net1
*731 net10
*732 net100
*733 net101
*734 net102
*735 net103
*736 net104
*737 net105
*738 net106
*739 net107
*740 net108
*741 net109
*742 net11
*743 net110
*744 net111
*745 net112
*746 net113
*747 net114
*748 net115
*749 net116
*750 net117
*751 net118
*752 net119
*753 net120
*754 net121
*755 net122
*756 net123
*757 net124
*758 net125
*759 net126
*760 net127
*761 net128
*762 net129
*763 net130
*764 net131
*765 net132
*766 net133
*767 net134
*768 net135
*769 net136
*770 net137
*771 net138
*772 net139
*773 net140
*774 net141
*775 net142
*776 net143
*777 net144
*778 net145
*779 net146
*780 net147
*781 net148
*782 net149
*783 net150
*784 net151
*785 net152
*786 net153
*787 net154
*788 net155
*789 net156
*790 net157
*791 net158
*792 net159
*793 net160
*794 net161
*795 net162
*796 net163
*797 net164
*798 net165
*799 net166
*800 net167
*801 net168
*802 net169
*803 net170
*804 net171
*805 net172
*806 net173
*807 net174
*808 net175
*809 net176
*810 net177
*811 net178
*812 net179
*813 net180
*814 net181
*815 net182
*816 net183
*817 net184
*818 net185
*819 net186
*820 net187
*821 net188
*822 net189
*823 net190
*824 net191
*825 net192
*826 net193
*827 net194
*828 net195
*829 net196
*830 net197
*831 net198
*832 net199
*833 net2
*834 net200
*835 net201
*836 net202
*837 net203
*838 net204
*839 net205
*840 net206
*841 net207
*842 net208
*843 net209
*844 net210
*845 net211
*846 net212
*847 net213
*848 net214
*849 net215
*850 net216
*851 net217
*852 net218
*853 net219
*854 net22
*855 net220
*856 net221
*857 net222
*858 net223
*859 net224
*860 net225
*861 net226
*862 net227
*863 net228
*864 net229
*865 net23
*866 net230
*867 net231
*868 net232
*869 net233
*870 net234
*871 net235
*872 net236
*873 net237
*874 net238
*875 net239
*876 net24
*877 net240
*878 net241
*879 net242
*880 net243
*881 net244
*882 net245
*883 net246
*884 net247
*885 net248
*886 net249
*887 net25
*888 net250
*889 net251
*890 net252
*891 net253
*892 net254
*893 net255
*894 net256
*895 net257
*896 net258
*897 net259
*898 net26
*899 net260
*900 net261
*901 net262
*902 net263
*903 net264
*904 net265
*905 net266
*906 net267
*907 net268
*908 net269
*909 net27
*910 net270
*911 net271
*912 net272
*913 net273
*914 net274
*915 net275
*916 net276
*917 net277
*918 net278
*919 net279
*920 net28
*921 net280
*922 net281
*923 net282
*924 net283
*925 net284
*926 net285
*927 net286
*928 net287
*929 net288
*930 net289
*931 net29
*932 net290
*933 net291
*934 net292
*935 net293
*936 net294
*937 net295
*938 net296
*939 net297
*940 net298
*941 net299
*942 net3
*943 net30
*944 net300
*945 net301
*946 net302
*947 net303
*948 net304
*949 net305
*950 net306
*951 net307
*952 net308
*953 net309
*954 net31
*955 net310
*956 net311
*957 net312
*958 net313
*959 net314
*960 net315
*961 net316
*962 net317
*963 net318
*964 net319
*965 net32
*966 net320
*967 net321
*968 net322
*969 net323
*970 net324
*971 net325
*972 net326
*973 net327
*974 net328
*975 net329
*976 net33
*977 net330
*978 net331
*979 net332
*980 net333
*981 net334
*982 net335
*983 net336
*984 net337
*985 net338
*986 net339
*987 net34
*988 net340
*989 net341
*990 net342
*991 net343
*992 net344
*993 net345
*994 net346
*995 net347
*996 net348
*997 net349
*998 net35
*999 net350
*1000 net351
*1001 net352
*1002 net353
*1003 net354
*1004 net355
*1005 net356
*1006 net357
*1007 net358
*1008 net36
*1009 net37
*1010 net38
*1011 net39
*1012 net4
*1013 net40
*1014 net41
*1015 net42
*1016 net43
*1017 net44
*1018 net45
*1019 net46
*1020 net47
*1021 net48
*1022 net49
*1023 net5
*1024 net50
*1025 net51
*1026 net52
*1027 net53
*1028 net54
*1029 net55
*1030 net56
*1031 net57
*1032 net58
*1033 net59
*1034 net6
*1035 net60
*1036 net61
*1037 net62
*1038 net63
*1039 net64
*1040 net65
*1041 net66
*1042 net67
*1043 net68
*1044 net69
*1045 net7
*1046 net70
*1047 net71
*1048 net72
*1049 net73
*1050 net74
*1051 net75
*1052 net76
*1053 net77
*1054 net78
*1055 net79
*1056 net8
*1057 net80
*1058 net81
*1059 net82
*1060 net83
*1061 net84
*1062 net85
*1063 net86
*1064 net87
*1065 net88
*1066 net89
*1067 net9
*1068 net90
*1069 net91
*1070 net92
*1071 net93
*1072 net94
*1073 net95
*1074 net96
*1075 net97
*1076 net98
*1077 net99
*1078 r_hsync
*1079 r_rgb\[0\]
*1080 r_rgb\[1\]
*1081 r_rgb\[2\]
*1082 r_rgb\[3\]
*1083 r_rgb\[4\]
*1084 r_rgb\[5\]
*1085 r_vsync
*1086 vga_spi_rom\.data_buffer\[0\]
*1087 vga_spi_rom\.data_buffer\[100\]
*1088 vga_spi_rom\.data_buffer\[101\]
*1089 vga_spi_rom\.data_buffer\[102\]
*1090 vga_spi_rom\.data_buffer\[103\]
*1091 vga_spi_rom\.data_buffer\[104\]
*1092 vga_spi_rom\.data_buffer\[105\]
*1093 vga_spi_rom\.data_buffer\[106\]
*1094 vga_spi_rom\.data_buffer\[107\]
*1095 vga_spi_rom\.data_buffer\[108\]
*1096 vga_spi_rom\.data_buffer\[109\]
*1097 vga_spi_rom\.data_buffer\[10\]
*1098 vga_spi_rom\.data_buffer\[110\]
*1099 vga_spi_rom\.data_buffer\[111\]
*1100 vga_spi_rom\.data_buffer\[112\]
*1101 vga_spi_rom\.data_buffer\[113\]
*1102 vga_spi_rom\.data_buffer\[114\]
*1103 vga_spi_rom\.data_buffer\[115\]
*1104 vga_spi_rom\.data_buffer\[116\]
*1105 vga_spi_rom\.data_buffer\[117\]
*1106 vga_spi_rom\.data_buffer\[118\]
*1107 vga_spi_rom\.data_buffer\[119\]
*1108 vga_spi_rom\.data_buffer\[11\]
*1109 vga_spi_rom\.data_buffer\[120\]
*1110 vga_spi_rom\.data_buffer\[121\]
*1111 vga_spi_rom\.data_buffer\[122\]
*1112 vga_spi_rom\.data_buffer\[123\]
*1113 vga_spi_rom\.data_buffer\[124\]
*1114 vga_spi_rom\.data_buffer\[125\]
*1115 vga_spi_rom\.data_buffer\[126\]
*1116 vga_spi_rom\.data_buffer\[127\]
*1117 vga_spi_rom\.data_buffer\[128\]
*1118 vga_spi_rom\.data_buffer\[129\]
*1119 vga_spi_rom\.data_buffer\[12\]
*1120 vga_spi_rom\.data_buffer\[130\]
*1121 vga_spi_rom\.data_buffer\[131\]
*1122 vga_spi_rom\.data_buffer\[132\]
*1123 vga_spi_rom\.data_buffer\[133\]
*1124 vga_spi_rom\.data_buffer\[134\]
*1125 vga_spi_rom\.data_buffer\[135\]
*1126 vga_spi_rom\.data_buffer\[13\]
*1127 vga_spi_rom\.data_buffer\[14\]
*1128 vga_spi_rom\.data_buffer\[15\]
*1129 vga_spi_rom\.data_buffer\[16\]
*1130 vga_spi_rom\.data_buffer\[17\]
*1131 vga_spi_rom\.data_buffer\[18\]
*1132 vga_spi_rom\.data_buffer\[19\]
*1133 vga_spi_rom\.data_buffer\[1\]
*1134 vga_spi_rom\.data_buffer\[20\]
*1135 vga_spi_rom\.data_buffer\[21\]
*1136 vga_spi_rom\.data_buffer\[22\]
*1137 vga_spi_rom\.data_buffer\[23\]
*1138 vga_spi_rom\.data_buffer\[24\]
*1139 vga_spi_rom\.data_buffer\[25\]
*1140 vga_spi_rom\.data_buffer\[26\]
*1141 vga_spi_rom\.data_buffer\[27\]
*1142 vga_spi_rom\.data_buffer\[28\]
*1143 vga_spi_rom\.data_buffer\[29\]
*1144 vga_spi_rom\.data_buffer\[2\]
*1145 vga_spi_rom\.data_buffer\[30\]
*1146 vga_spi_rom\.data_buffer\[31\]
*1147 vga_spi_rom\.data_buffer\[32\]
*1148 vga_spi_rom\.data_buffer\[33\]
*1149 vga_spi_rom\.data_buffer\[34\]
*1150 vga_spi_rom\.data_buffer\[35\]
*1151 vga_spi_rom\.data_buffer\[36\]
*1152 vga_spi_rom\.data_buffer\[37\]
*1153 vga_spi_rom\.data_buffer\[38\]
*1154 vga_spi_rom\.data_buffer\[39\]
*1155 vga_spi_rom\.data_buffer\[3\]
*1156 vga_spi_rom\.data_buffer\[40\]
*1157 vga_spi_rom\.data_buffer\[41\]
*1158 vga_spi_rom\.data_buffer\[42\]
*1159 vga_spi_rom\.data_buffer\[43\]
*1160 vga_spi_rom\.data_buffer\[44\]
*1161 vga_spi_rom\.data_buffer\[45\]
*1162 vga_spi_rom\.data_buffer\[46\]
*1163 vga_spi_rom\.data_buffer\[47\]
*1164 vga_spi_rom\.data_buffer\[48\]
*1165 vga_spi_rom\.data_buffer\[49\]
*1166 vga_spi_rom\.data_buffer\[4\]
*1167 vga_spi_rom\.data_buffer\[50\]
*1168 vga_spi_rom\.data_buffer\[51\]
*1169 vga_spi_rom\.data_buffer\[52\]
*1170 vga_spi_rom\.data_buffer\[53\]
*1171 vga_spi_rom\.data_buffer\[54\]
*1172 vga_spi_rom\.data_buffer\[55\]
*1173 vga_spi_rom\.data_buffer\[56\]
*1174 vga_spi_rom\.data_buffer\[57\]
*1175 vga_spi_rom\.data_buffer\[58\]
*1176 vga_spi_rom\.data_buffer\[59\]
*1177 vga_spi_rom\.data_buffer\[5\]
*1178 vga_spi_rom\.data_buffer\[60\]
*1179 vga_spi_rom\.data_buffer\[61\]
*1180 vga_spi_rom\.data_buffer\[62\]
*1181 vga_spi_rom\.data_buffer\[63\]
*1182 vga_spi_rom\.data_buffer\[64\]
*1183 vga_spi_rom\.data_buffer\[65\]
*1184 vga_spi_rom\.data_buffer\[66\]
*1185 vga_spi_rom\.data_buffer\[67\]
*1186 vga_spi_rom\.data_buffer\[68\]
*1187 vga_spi_rom\.data_buffer\[69\]
*1188 vga_spi_rom\.data_buffer\[6\]
*1189 vga_spi_rom\.data_buffer\[70\]
*1190 vga_spi_rom\.data_buffer\[71\]
*1191 vga_spi_rom\.data_buffer\[72\]
*1192 vga_spi_rom\.data_buffer\[73\]
*1193 vga_spi_rom\.data_buffer\[74\]
*1194 vga_spi_rom\.data_buffer\[75\]
*1195 vga_spi_rom\.data_buffer\[76\]
*1196 vga_spi_rom\.data_buffer\[77\]
*1197 vga_spi_rom\.data_buffer\[78\]
*1198 vga_spi_rom\.data_buffer\[79\]
*1199 vga_spi_rom\.data_buffer\[7\]
*1200 vga_spi_rom\.data_buffer\[80\]
*1201 vga_spi_rom\.data_buffer\[81\]
*1202 vga_spi_rom\.data_buffer\[82\]
*1203 vga_spi_rom\.data_buffer\[83\]
*1204 vga_spi_rom\.data_buffer\[84\]
*1205 vga_spi_rom\.data_buffer\[85\]
*1206 vga_spi_rom\.data_buffer\[86\]
*1207 vga_spi_rom\.data_buffer\[87\]
*1208 vga_spi_rom\.data_buffer\[88\]
*1209 vga_spi_rom\.data_buffer\[89\]
*1210 vga_spi_rom\.data_buffer\[8\]
*1211 vga_spi_rom\.data_buffer\[90\]
*1212 vga_spi_rom\.data_buffer\[91\]
*1213 vga_spi_rom\.data_buffer\[92\]
*1214 vga_spi_rom\.data_buffer\[93\]
*1215 vga_spi_rom\.data_buffer\[94\]
*1216 vga_spi_rom\.data_buffer\[95\]
*1217 vga_spi_rom\.data_buffer\[96\]
*1218 vga_spi_rom\.data_buffer\[97\]
*1219 vga_spi_rom\.data_buffer\[98\]
*1220 vga_spi_rom\.data_buffer\[99\]
*1221 vga_spi_rom\.data_buffer\[9\]
*1222 vga_spi_rom\.data_index\[3\]
*1223 vga_spi_rom\.hpos\[0\]
*1224 vga_spi_rom\.hpos\[1\]
*1225 vga_spi_rom\.hpos\[2\]
*1226 vga_spi_rom\.hpos\[4\]
*1227 vga_spi_rom\.hpos\[5\]
*1228 vga_spi_rom\.hpos\[6\]
*1229 vga_spi_rom\.hpos\[7\]
*1230 vga_spi_rom\.hpos\[8\]
*1231 vga_spi_rom\.hpos\[9\]
*1232 vga_spi_rom\.hsync
*1233 vga_spi_rom\.quad
*1234 vga_spi_rom\.spi_out0
*1235 vga_spi_rom\.vga_sync\.o_vpos\[0\]
*1236 vga_spi_rom\.vga_sync\.o_vpos\[1\]
*1237 vga_spi_rom\.vga_sync\.o_vpos\[2\]
*1238 vga_spi_rom\.vga_sync\.o_vpos\[3\]
*1239 vga_spi_rom\.vga_sync\.o_vpos\[4\]
*1240 vga_spi_rom\.vga_sync\.o_vpos\[5\]
*1241 vga_spi_rom\.vga_sync\.o_vpos\[6\]
*1242 vga_spi_rom\.vga_sync\.o_vpos\[7\]
*1243 vga_spi_rom\.vga_sync\.o_vpos\[9\]
*1244 vga_spi_rom\.vga_sync\.vsync
*1245 FILLER_0_0_141
*1246 FILLER_0_0_15
*1247 FILLER_0_0_165
*1248 FILLER_0_0_169
*1249 FILLER_0_0_182
*1250 FILLER_0_0_194
*1251 FILLER_0_0_197
*1252 FILLER_0_0_209
*1253 FILLER_0_0_221
*1254 FILLER_0_0_225
*1255 FILLER_0_0_237
*1256 FILLER_0_0_249
*1257 FILLER_0_0_253
*1258 FILLER_0_0_265
*1259 FILLER_0_0_27
*1260 FILLER_0_0_277
*1261 FILLER_0_0_281
*1262 FILLER_0_0_29
*1263 FILLER_0_0_293
*1264 FILLER_0_0_3
*1265 FILLER_0_0_305
*1266 FILLER_0_0_309
*1267 FILLER_0_0_321
*1268 FILLER_0_0_333
*1269 FILLER_0_0_337
*1270 FILLER_0_0_349
*1271 FILLER_0_0_41
*1272 FILLER_0_0_53
*1273 FILLER_0_0_57
*1274 FILLER_0_0_69
*1275 FILLER_0_0_81
*1276 FILLER_0_0_85
*1277 FILLER_0_0_97
*1278 FILLER_0_10_106
*1279 FILLER_0_10_119
*1280 FILLER_0_10_144
*1281 FILLER_0_10_183
*1282 FILLER_0_10_22
*1283 FILLER_0_10_229
*1284 FILLER_0_10_237
*1285 FILLER_0_10_241
*1286 FILLER_0_10_253
*1287 FILLER_0_10_278
*1288 FILLER_0_10_299
*1289 FILLER_0_10_32
*1290 FILLER_0_10_325
*1291 FILLER_0_10_337
*1292 FILLER_0_10_349
*1293 FILLER_0_10_81
*1294 FILLER_0_11_100
*1295 FILLER_0_11_11
*1296 FILLER_0_11_122
*1297 FILLER_0_11_167
*1298 FILLER_0_11_190
*1299 FILLER_0_11_212
*1300 FILLER_0_11_223
*1301 FILLER_0_11_233
*1302 FILLER_0_11_253
*1303 FILLER_0_11_266
*1304 FILLER_0_11_281
*1305 FILLER_0_11_3
*1306 FILLER_0_11_318
*1307 FILLER_0_11_337
*1308 FILLER_0_11_82
*1309 FILLER_0_11_94
*1310 FILLER_0_12_130
*1311 FILLER_0_12_195
*1312 FILLER_0_12_242
*1313 FILLER_0_12_26
*1314 FILLER_0_12_3
*1315 FILLER_0_12_331
*1316 FILLER_0_12_348
*1317 FILLER_0_12_45
*1318 FILLER_0_12_62
*1319 FILLER_0_12_83
*1320 FILLER_0_12_88
*1321 FILLER_0_12_99
*1322 FILLER_0_13_108
*1323 FILLER_0_13_113
*1324 FILLER_0_13_136
*1325 FILLER_0_13_140
*1326 FILLER_0_13_165
*1327 FILLER_0_13_197
*1328 FILLER_0_13_20
*1329 FILLER_0_13_219
*1330 FILLER_0_13_24
*1331 FILLER_0_13_250
*1332 FILLER_0_13_261
*1333 FILLER_0_13_281
*1334 FILLER_0_13_3
*1335 FILLER_0_13_312
*1336 FILLER_0_13_334
*1337 FILLER_0_13_348
*1338 FILLER_0_13_35
*1339 FILLER_0_13_57
*1340 FILLER_0_13_71
*1341 FILLER_0_14_110
*1342 FILLER_0_14_141
*1343 FILLER_0_14_165
*1344 FILLER_0_14_173
*1345 FILLER_0_14_191
*1346 FILLER_0_14_195
*1347 FILLER_0_14_197
*1348 FILLER_0_14_229
*1349 FILLER_0_14_251
*1350 FILLER_0_14_26
*1351 FILLER_0_14_262
*1352 FILLER_0_14_280
*1353 FILLER_0_14_29
*1354 FILLER_0_14_347
*1355 FILLER_0_14_59
*1356 FILLER_0_14_94
*1357 FILLER_0_14_99
*1358 FILLER_0_15_107
*1359 FILLER_0_15_111
*1360 FILLER_0_15_113
*1361 FILLER_0_15_136
*1362 FILLER_0_15_142
*1363 FILLER_0_15_146
*1364 FILLER_0_15_157
*1365 FILLER_0_15_169
*1366 FILLER_0_15_23
*1367 FILLER_0_15_257
*1368 FILLER_0_15_278
*1369 FILLER_0_15_289
*1370 FILLER_0_15_3
*1371 FILLER_0_15_313
*1372 FILLER_0_15_346
*1373 FILLER_0_15_350
*1374 FILLER_0_15_55
*1375 FILLER_0_15_66
*1376 FILLER_0_15_84
*1377 FILLER_0_15_90
*1378 FILLER_0_16_106
*1379 FILLER_0_16_11
*1380 FILLER_0_16_137
*1381 FILLER_0_16_141
*1382 FILLER_0_16_15
*1383 FILLER_0_16_177
*1384 FILLER_0_16_189
*1385 FILLER_0_16_195
*1386 FILLER_0_16_197
*1387 FILLER_0_16_217
*1388 FILLER_0_16_229
*1389 FILLER_0_16_247
*1390 FILLER_0_16_251
*1391 FILLER_0_16_264
*1392 FILLER_0_16_27
*1393 FILLER_0_16_29
*1394 FILLER_0_16_3
*1395 FILLER_0_16_307
*1396 FILLER_0_16_325
*1397 FILLER_0_16_348
*1398 FILLER_0_16_35
*1399 FILLER_0_16_45
*1400 FILLER_0_16_7
*1401 FILLER_0_16_79
*1402 FILLER_0_16_83
*1403 FILLER_0_16_85
*1404 FILLER_0_17_113
*1405 FILLER_0_17_167
*1406 FILLER_0_17_180
*1407 FILLER_0_17_220
*1408 FILLER_0_17_225
*1409 FILLER_0_17_248
*1410 FILLER_0_17_290
*1411 FILLER_0_17_3
*1412 FILLER_0_17_313
*1413 FILLER_0_17_331
*1414 FILLER_0_17_335
*1415 FILLER_0_17_346
*1416 FILLER_0_17_350
*1417 FILLER_0_17_41
*1418 FILLER_0_17_52
*1419 FILLER_0_17_57
*1420 FILLER_0_17_65
*1421 FILLER_0_17_7
*1422 FILLER_0_18_104
*1423 FILLER_0_18_116
*1424 FILLER_0_18_141
*1425 FILLER_0_18_153
*1426 FILLER_0_18_163
*1427 FILLER_0_18_180
*1428 FILLER_0_18_186
*1429 FILLER_0_18_190
*1430 FILLER_0_18_194
*1431 FILLER_0_18_250
*1432 FILLER_0_18_27
*1433 FILLER_0_18_29
*1434 FILLER_0_18_293
*1435 FILLER_0_18_298
*1436 FILLER_0_18_3
*1437 FILLER_0_18_309
*1438 FILLER_0_18_318
*1439 FILLER_0_18_328
*1440 FILLER_0_18_51
*1441 FILLER_0_18_96
*1442 FILLER_0_19_102
*1443 FILLER_0_19_108
*1444 FILLER_0_19_129
*1445 FILLER_0_19_159
*1446 FILLER_0_19_169
*1447 FILLER_0_19_193
*1448 FILLER_0_19_211
*1449 FILLER_0_19_222
*1450 FILLER_0_19_225
*1451 FILLER_0_19_246
*1452 FILLER_0_19_277
*1453 FILLER_0_19_332
*1454 FILLER_0_19_346
*1455 FILLER_0_19_350
*1456 FILLER_0_19_41
*1457 FILLER_0_1_103
*1458 FILLER_0_1_11
*1459 FILLER_0_1_129
*1460 FILLER_0_1_167
*1461 FILLER_0_1_17
*1462 FILLER_0_1_193
*1463 FILLER_0_1_205
*1464 FILLER_0_1_217
*1465 FILLER_0_1_223
*1466 FILLER_0_1_225
*1467 FILLER_0_1_229
*1468 FILLER_0_1_233
*1469 FILLER_0_1_245
*1470 FILLER_0_1_257
*1471 FILLER_0_1_269
*1472 FILLER_0_1_277
*1473 FILLER_0_1_281
*1474 FILLER_0_1_289
*1475 FILLER_0_1_29
*1476 FILLER_0_1_299
*1477 FILLER_0_1_3
*1478 FILLER_0_1_305
*1479 FILLER_0_1_317
*1480 FILLER_0_1_329
*1481 FILLER_0_1_335
*1482 FILLER_0_1_337
*1483 FILLER_0_1_349
*1484 FILLER_0_1_35
*1485 FILLER_0_1_39
*1486 FILLER_0_1_47
*1487 FILLER_0_1_57
*1488 FILLER_0_1_61
*1489 FILLER_0_1_84
*1490 FILLER_0_1_97
*1491 FILLER_0_20_124
*1492 FILLER_0_20_139
*1493 FILLER_0_20_146
*1494 FILLER_0_20_173
*1495 FILLER_0_20_191
*1496 FILLER_0_20_195
*1497 FILLER_0_20_218
*1498 FILLER_0_20_222
*1499 FILLER_0_20_226
*1500 FILLER_0_20_230
*1501 FILLER_0_20_24
*1502 FILLER_0_20_245
*1503 FILLER_0_20_251
*1504 FILLER_0_20_253
*1505 FILLER_0_20_263
*1506 FILLER_0_20_280
*1507 FILLER_0_20_29
*1508 FILLER_0_20_3
*1509 FILLER_0_20_328
*1510 FILLER_0_20_91
*1511 FILLER_0_21_121
*1512 FILLER_0_21_15
*1513 FILLER_0_21_151
*1514 FILLER_0_21_165
*1515 FILLER_0_21_178
*1516 FILLER_0_21_182
*1517 FILLER_0_21_191
*1518 FILLER_0_21_199
*1519 FILLER_0_21_206
*1520 FILLER_0_21_213
*1521 FILLER_0_21_217
*1522 FILLER_0_21_223
*1523 FILLER_0_21_231
*1524 FILLER_0_21_239
*1525 FILLER_0_21_249
*1526 FILLER_0_21_255
*1527 FILLER_0_21_264
*1528 FILLER_0_21_276
*1529 FILLER_0_21_28
*1530 FILLER_0_21_3
*1531 FILLER_0_21_311
*1532 FILLER_0_21_326
*1533 FILLER_0_21_348
*1534 FILLER_0_21_41
*1535 FILLER_0_21_53
*1536 FILLER_0_21_81
*1537 FILLER_0_22_108
*1538 FILLER_0_22_132
*1539 FILLER_0_22_144
*1540 FILLER_0_22_171
*1541 FILLER_0_22_181
*1542 FILLER_0_22_187
*1543 FILLER_0_22_195
*1544 FILLER_0_22_213
*1545 FILLER_0_22_230
*1546 FILLER_0_22_237
*1547 FILLER_0_22_245
*1548 FILLER_0_22_25
*1549 FILLER_0_22_251
*1550 FILLER_0_22_253
*1551 FILLER_0_22_266
*1552 FILLER_0_22_275
*1553 FILLER_0_22_29
*1554 FILLER_0_22_3
*1555 FILLER_0_22_317
*1556 FILLER_0_22_51
*1557 FILLER_0_22_63
*1558 FILLER_0_22_67
*1559 FILLER_0_22_74
*1560 FILLER_0_22_88
*1561 FILLER_0_22_98
*1562 FILLER_0_23_113
*1563 FILLER_0_23_133
*1564 FILLER_0_23_153
*1565 FILLER_0_23_161
*1566 FILLER_0_23_169
*1567 FILLER_0_23_180
*1568 FILLER_0_23_187
*1569 FILLER_0_23_199
*1570 FILLER_0_23_211
*1571 FILLER_0_23_236
*1572 FILLER_0_23_247
*1573 FILLER_0_23_256
*1574 FILLER_0_23_264
*1575 FILLER_0_23_278
*1576 FILLER_0_23_281
*1577 FILLER_0_23_308
*1578 FILLER_0_23_324
*1579 FILLER_0_23_337
*1580 FILLER_0_23_349
*1581 FILLER_0_23_39
*1582 FILLER_0_23_54
*1583 FILLER_0_23_60
*1584 FILLER_0_24_137
*1585 FILLER_0_24_141
*1586 FILLER_0_24_162
*1587 FILLER_0_24_168
*1588 FILLER_0_24_172
*1589 FILLER_0_24_185
*1590 FILLER_0_24_222
*1591 FILLER_0_24_231
*1592 FILLER_0_24_237
*1593 FILLER_0_24_26
*1594 FILLER_0_24_262
*1595 FILLER_0_24_270
*1596 FILLER_0_24_278
*1597 FILLER_0_24_285
*1598 FILLER_0_24_29
*1599 FILLER_0_24_315
*1600 FILLER_0_24_321
*1601 FILLER_0_24_340
*1602 FILLER_0_24_348
*1603 FILLER_0_24_52
*1604 FILLER_0_24_94
*1605 FILLER_0_25_108
*1606 FILLER_0_25_127
*1607 FILLER_0_25_139
*1608 FILLER_0_25_166
*1609 FILLER_0_25_169
*1610 FILLER_0_25_179
*1611 FILLER_0_25_188
*1612 FILLER_0_25_200
*1613 FILLER_0_25_225
*1614 FILLER_0_25_232
*1615 FILLER_0_25_244
*1616 FILLER_0_25_256
*1617 FILLER_0_25_264
*1618 FILLER_0_25_269
*1619 FILLER_0_25_276
*1620 FILLER_0_25_281
*1621 FILLER_0_25_293
*1622 FILLER_0_25_3
*1623 FILLER_0_25_301
*1624 FILLER_0_25_313
*1625 FILLER_0_25_317
*1626 FILLER_0_25_321
*1627 FILLER_0_25_333
*1628 FILLER_0_25_337
*1629 FILLER_0_25_349
*1630 FILLER_0_25_41
*1631 FILLER_0_25_66
*1632 FILLER_0_25_70
*1633 FILLER_0_25_92
*1634 FILLER_0_25_98
*1635 FILLER_0_26_118
*1636 FILLER_0_26_131
*1637 FILLER_0_26_154
*1638 FILLER_0_26_162
*1639 FILLER_0_26_174
*1640 FILLER_0_26_183
*1641 FILLER_0_26_195
*1642 FILLER_0_26_197
*1643 FILLER_0_26_208
*1644 FILLER_0_26_216
*1645 FILLER_0_26_225
*1646 FILLER_0_26_23
*1647 FILLER_0_26_237
*1648 FILLER_0_26_27
*1649 FILLER_0_26_270
*1650 FILLER_0_26_278
*1651 FILLER_0_26_29
*1652 FILLER_0_26_3
*1653 FILLER_0_26_306
*1654 FILLER_0_26_317
*1655 FILLER_0_26_323
*1656 FILLER_0_26_340
*1657 FILLER_0_26_348
*1658 FILLER_0_26_75
*1659 FILLER_0_26_94
*1660 FILLER_0_27_102
*1661 FILLER_0_27_129
*1662 FILLER_0_27_14
*1663 FILLER_0_27_141
*1664 FILLER_0_27_149
*1665 FILLER_0_27_154
*1666 FILLER_0_27_158
*1667 FILLER_0_27_166
*1668 FILLER_0_27_169
*1669 FILLER_0_27_18
*1670 FILLER_0_27_191
*1671 FILLER_0_27_210
*1672 FILLER_0_27_216
*1673 FILLER_0_27_233
*1674 FILLER_0_27_245
*1675 FILLER_0_27_264
*1676 FILLER_0_27_270
*1677 FILLER_0_27_274
*1678 FILLER_0_27_28
*1679 FILLER_0_27_284
*1680 FILLER_0_27_296
*1681 FILLER_0_27_3
*1682 FILLER_0_27_302
*1683 FILLER_0_27_312
*1684 FILLER_0_27_330
*1685 FILLER_0_27_348
*1686 FILLER_0_27_36
*1687 FILLER_0_27_53
*1688 FILLER_0_27_57
*1689 FILLER_0_27_81
*1690 FILLER_0_28_110
*1691 FILLER_0_28_117
*1692 FILLER_0_28_136
*1693 FILLER_0_28_141
*1694 FILLER_0_28_148
*1695 FILLER_0_28_160
*1696 FILLER_0_28_169
*1697 FILLER_0_28_175
*1698 FILLER_0_28_180
*1699 FILLER_0_28_192
*1700 FILLER_0_28_197
*1701 FILLER_0_28_201
*1702 FILLER_0_28_207
*1703 FILLER_0_28_219
*1704 FILLER_0_28_240
*1705 FILLER_0_28_249
*1706 FILLER_0_28_25
*1707 FILLER_0_28_253
*1708 FILLER_0_28_257
*1709 FILLER_0_28_263
*1710 FILLER_0_28_276
*1711 FILLER_0_28_287
*1712 FILLER_0_28_295
*1713 FILLER_0_28_3
*1714 FILLER_0_28_305
*1715 FILLER_0_28_38