*SPEF "ieee 1481-1999"
*DESIGN "tt_um_algofoogle_vga_spi_rom"
*DATE "11:11:11 Fri 11 11, 1111"
*VENDOR "OpenRCX"
*PROGRAM "Parallel Extraction"
*VERSION "1.0"
*DESIGN_FLOW "NAME_SCOPE LOCAL" "PIN_CAP NONE"
*DIVIDER /
*DELIMITER :
*BUS_DELIMITER []
*T_UNIT 1 NS
*C_UNIT 1 PF
*R_UNIT 1 OHM
*L_UNIT 1 HENRY

*NAME_MAP
*3 clk
*4 ena
*5 rst_n
*6 ui_in[0]
*7 ui_in[1]
*8 ui_in[2]
*9 ui_in[3]
*10 ui_in[4]
*11 ui_in[5]
*12 ui_in[6]
*13 ui_in[7]
*14 uio_in[0]
*15 uio_in[1]
*16 uio_in[2]
*17 uio_in[3]
*18 uio_in[4]
*19 uio_in[5]
*20 uio_in[6]
*21 uio_in[7]
*22 net10
*23 net11
*24 net12
*25 net13
*26 net14
*27 net15
*28 net16
*29 net17
*30 uio_out[0]
*31 uio_out[1]
*32 uio_out[2]
*33 uio_out[3]
*34 uio_out[4]
*35 uio_out[5]
*36 uio_out[6]
*37 uio_out[7]
*38 uo_out[0]
*39 uo_out[1]
*40 uo_out[2]
*41 uo_out[3]
*42 uo_out[4]
*43 uo_out[5]
*44 uo_out[6]
*45 uo_out[7]
*46 _0136_
*47 _0137_
*48 _0138_
*49 _0139_
*50 _0140_
*51 _0141_
*52 _0142_
*53 _0143_
*54 _0144_
*55 _0145_
*56 _0146_
*57 _0147_
*58 _0148_
*59 _0149_
*60 _0150_
*61 _0151_
*62 _0152_
*63 _0153_
*64 _0154_
*65 _0155_
*66 _0156_
*67 _0157_
*68 _0158_
*69 _0159_
*70 _0160_
*71 _0161_
*72 _0162_
*73 _0163_
*74 _0164_
*75 _0165_
*76 _0166_
*77 _0167_
*78 _0168_
*79 _0169_
*80 _0170_
*81 _0171_
*82 _0172_
*83 _0173_
*84 _0174_
*85 _0175_
*86 _0176_
*87 _0177_
*88 _0178_
*89 _0179_
*90 _0180_
*91 _0181_
*92 _0182_
*93 _0183_
*94 _0184_
*95 _0185_
*96 _0186_
*97 _0187_
*98 _0188_
*99 _0189_
*100 _0190_
*101 _0191_
*102 _0192_
*103 _0193_
*104 _0194_
*105 _0195_
*106 _0196_
*107 _0197_
*108 _0198_
*109 _0199_
*110 _0200_
*111 _0201_
*112 _0202_
*113 _0203_
*114 _0204_
*115 _0205_
*116 _0206_
*117 _0207_
*118 _0208_
*119 _0209_
*120 _0210_
*121 _0211_
*122 _0212_
*123 _0213_
*124 _0214_
*125 _0215_
*126 _0216_
*127 _0217_
*128 _0218_
*129 _0219_
*130 _0220_
*131 _0221_
*132 _0222_
*133 _0223_
*134 _0224_
*135 _0225_
*136 _0226_
*137 _0227_
*138 _0228_
*139 _0229_
*140 _0230_
*141 _0231_
*142 _0232_
*143 _0233_
*144 _0234_
*145 _0235_
*146 _0236_
*147 _0237_
*148 _0238_
*149 _0239_
*150 _0240_
*151 _0241_
*152 _0242_
*153 _0243_
*154 _0244_
*155 _0245_
*156 _0246_
*157 _0247_
*158 _0248_
*159 _0249_
*160 _0250_
*161 _0251_
*162 _0252_
*163 _0253_
*164 _0254_
*165 _0255_
*166 _0256_
*167 _0257_
*168 _0258_
*169 _0259_
*170 _0260_
*171 _0261_
*172 _0262_
*173 _0263_
*174 _0264_
*175 _0265_
*176 _0266_
*177 _0267_
*178 _0268_
*179 _0269_
*180 _0270_
*181 _0271_
*182 _0272_
*183 _0273_
*184 _0274_
*185 _0275_
*186 _0276_
*187 _0277_
*188 _0278_
*189 _0279_
*190 _0280_
*191 _0281_
*192 _0282_
*193 _0283_
*194 _0284_
*195 _0285_
*196 _0286_
*197 _0287_
*198 _0288_
*199 _0289_
*200 _0290_
*201 _0291_
*202 _0292_
*203 _0293_
*204 _0294_
*205 _0295_
*206 _0296_
*207 _0297_
*208 _0298_
*209 _0299_
*210 _0300_
*211 _0301_
*212 _0302_
*213 _0303_
*214 _0304_
*215 _0305_
*216 _0306_
*217 _0307_
*218 _0308_
*219 _0309_
*220 _0310_
*221 _0311_
*222 _0312_
*223 _0313_
*224 _0314_
*225 _0315_
*226 _0316_
*227 _0317_
*228 _0318_
*229 _0319_
*230 _0320_
*231 _0321_
*232 _0322_
*233 _0323_
*234 _0324_
*235 _0325_
*236 _0326_
*237 _0327_
*238 _0328_
*239 _0329_
*240 _0330_
*241 _0331_
*242 _0332_
*243 _0333_
*244 _0334_
*245 _0335_
*246 _0336_
*247 _0337_
*248 _0338_
*249 _0339_
*250 _0340_
*251 _0341_
*252 _0342_
*253 _0343_
*254 _0344_
*255 _0345_
*256 _0346_
*257 _0347_
*258 _0348_
*259 _0349_
*260 _0350_
*261 _0351_
*262 _0352_
*263 _0353_
*264 _0354_
*265 _0355_
*266 _0356_
*267 _0357_
*268 _0358_
*269 _0359_
*270 _0360_
*271 _0361_
*272 _0362_
*273 _0363_
*274 _0364_
*275 _0365_
*276 _0366_
*277 _0367_
*278 _0368_
*279 _0369_
*280 _0370_
*281 _0371_
*282 _0372_
*283 _0373_
*284 _0374_
*285 _0375_
*286 _0376_
*287 _0377_
*288 _0378_
*289 _0379_
*290 _0380_
*291 _0381_
*292 _0382_
*293 _0383_
*294 _0384_
*295 _0385_
*296 _0386_
*297 _0387_
*298 _0388_
*299 _0389_
*300 _0390_
*301 _0391_
*302 _0392_
*303 _0393_
*304 _0394_
*305 _0395_
*306 _0396_
*307 _0397_
*308 _0398_
*309 _0399_
*310 _0400_
*311 _0401_
*312 _0402_
*313 _0403_
*314 _0404_
*315 _0405_
*316 _0406_
*317 _0407_
*318 _0408_
*319 _0409_
*320 _0410_
*321 _0411_
*322 _0412_
*323 _0413_
*324 _0414_
*325 _0415_
*326 _0416_
*327 _0417_
*328 _0418_
*329 _0419_
*330 _0420_
*331 _0421_
*332 _0422_
*333 _0423_
*334 _0424_
*335 _0425_
*336 _0426_
*337 _0427_
*338 _0428_
*339 _0429_
*340 _0430_
*341 _0431_
*342 _0432_
*343 _0433_
*344 _0434_
*345 _0435_
*346 _0436_
*347 _0437_
*348 _0438_
*349 _0439_
*350 _0440_
*351 _0441_
*352 _0442_
*353 _0443_
*354 _0444_
*355 _0445_
*356 _0446_
*357 _0447_
*358 _0448_
*359 _0449_
*360 _0450_
*361 _0451_
*362 _0452_
*363 _0453_
*364 _0454_
*365 _0455_
*366 _0456_
*367 _0457_
*368 _0458_
*369 _0459_
*370 _0460_
*371 _0461_
*372 _0462_
*373 _0463_
*374 _0464_
*375 _0465_
*376 _0466_
*377 _0467_
*378 _0468_
*379 _0469_
*380 _0470_
*381 _0471_
*382 _0472_
*383 _0473_
*384 _0474_
*385 _0475_
*386 _0476_
*387 _0477_
*388 _0478_
*389 _0479_
*390 _0480_
*391 _0481_
*392 _0482_
*393 _0483_
*394 _0484_
*395 _0485_
*396 _0486_
*397 _0487_
*398 _0488_
*399 _0489_
*400 _0490_
*401 _0491_
*402 _0492_
*403 _0493_
*404 _0494_
*405 _0495_
*406 _0496_
*407 _0497_
*408 _0498_
*409 _0499_
*410 _0500_
*411 _0501_
*412 _0502_
*413 _0503_
*414 _0504_
*415 _0505_
*416 _0506_
*417 _0507_
*418 _0508_
*419 _0509_
*420 _0510_
*421 _0511_
*422 _0512_
*423 _0513_
*424 _0514_
*425 _0515_
*426 _0516_
*427 _0517_
*428 _0518_
*429 _0519_
*430 _0520_
*431 _0521_
*432 _0522_
*433 _0523_
*434 _0524_
*435 _0525_
*436 _0526_
*437 _0527_
*438 _0528_
*439 _0529_
*440 _0530_
*441 _0531_
*442 _0532_
*443 _0533_
*444 _0534_
*445 _0535_
*446 _0536_
*447 _0537_
*448 _0538_
*449 _0539_
*450 _0540_
*451 _0541_
*452 _0542_
*453 _0543_
*454 _0544_
*455 _0545_
*456 _0546_
*457 _0547_
*458 _0548_
*459 _0549_
*460 _0550_
*461 _0551_
*462 _0552_
*463 _0553_
*464 _0554_
*465 _0555_
*466 _0556_
*467 _0557_
*468 _0558_
*469 _0559_
*470 _0560_
*471 _0561_
*472 _0562_
*473 _0563_
*474 _0564_
*475 _0565_
*476 _0566_
*477 _0567_
*478 _0568_
*479 _0569_
*480 _0570_
*481 _0571_
*482 _0572_
*483 _0573_
*484 _0574_
*485 _0575_
*486 _0576_
*487 _0577_
*488 _0578_
*489 _0579_
*490 _0580_
*491 _0581_
*492 _0582_
*493 _0583_
*494 _0584_
*495 _0585_
*496 _0586_
*497 _0587_
*498 _0588_
*499 _0589_
*500 _0590_
*501 _0591_
*502 _0592_
*503 _0593_
*504 _0594_
*505 _0595_
*506 _0596_
*507 _0597_
*508 _0598_
*509 _0599_
*510 _0600_
*511 _0601_
*512 _0602_
*513 _0603_
*514 _0604_
*515 _0605_
*516 _0606_
*517 _0607_
*518 _0608_
*519 _0609_
*520 _0610_
*521 _0611_
*522 _0612_
*523 _0613_
*524 _0614_
*525 _0615_
*526 _0616_
*527 _0617_
*528 _0618_
*529 _0619_
*530 _0620_
*531 _0621_
*532 _0622_
*533 _0623_
*534 _0624_
*535 _0625_
*536 _0626_
*537 _0627_
*538 _0628_
*539 _0629_
*540 _0630_
*541 _0631_
*542 _0632_
*543 _0633_
*544 _0634_
*545 _0635_
*546 _0636_
*547 _0637_
*548 _0638_
*549 _0639_
*550 _0640_
*551 _0641_
*552 _0642_
*553 _0643_
*554 _0644_
*555 _0645_
*556 _0646_
*557 _0647_
*558 _0648_
*559 _0649_
*560 _0650_
*561 _0651_
*562 _0652_
*563 _0653_
*564 _0654_
*565 _0655_
*566 _0656_
*567 _0657_
*568 _0658_
*569 _0659_
*570 _0660_
*571 _0661_
*572 _0662_
*573 _0663_
*574 _0664_
*575 _0665_
*576 _0666_
*577 _0667_
*578 _0668_
*579 _0669_
*580 _0670_
*581 _0671_
*582 _0672_
*583 _0673_
*584 _0674_
*585 _0675_
*586 _0676_
*587 _0677_
*588 _0678_
*589 _0679_
*590 _0680_
*591 _0681_
*592 _0682_
*593 _0683_
*594 _0684_
*595 _0685_
*596 _0686_
*597 _0687_
*598 _0688_
*599 _0689_
*600 _0690_
*601 _0691_
*602 _0692_
*603 _0693_
*604 _0694_
*605 _0695_
*606 _0696_
*607 _0697_
*608 _0698_
*609 clknet_0__0294_
*610 clknet_0__0295_
*611 clknet_0__0296_
*612 clknet_0__0297_
*613 clknet_0__0298_
*614 clknet_0__0299_
*615 clknet_0__0300_
*616 clknet_0__0301_
*617 clknet_0__0302_
*618 clknet_0__0303_
*619 clknet_0__0304_
*620 clknet_0__0676_
*621 clknet_0__0677_
*622 clknet_0__0697_
*623 clknet_0__0698_
*624 clknet_0_clk
*625 clknet_1_0__leaf__0294_
*626 clknet_1_0__leaf__0295_
*627 clknet_1_0__leaf__0296_
*628 clknet_1_0__leaf__0297_
*629 clknet_1_0__leaf__0298_
*630 clknet_1_0__leaf__0299_
*631 clknet_1_0__leaf__0300_
*632 clknet_1_0__leaf__0301_
*633 clknet_1_0__leaf__0302_
*634 clknet_1_0__leaf__0303_
*635 clknet_1_0__leaf__0304_
*636 clknet_1_0__leaf__0676_
*637 clknet_1_0__leaf__0677_
*638 clknet_1_0__leaf__0697_
*639 clknet_1_0__leaf__0698_
*640 clknet_1_0__leaf_clk
*641 clknet_1_1__leaf__0294_
*642 clknet_1_1__leaf__0295_
*643 clknet_1_1__leaf__0296_
*644 clknet_1_1__leaf__0297_
*645 clknet_1_1__leaf__0298_
*646 clknet_1_1__leaf__0299_
*647 clknet_1_1__leaf__0300_
*648 clknet_1_1__leaf__0301_
*649 clknet_1_1__leaf__0302_
*650 clknet_1_1__leaf__0303_
*651 clknet_1_1__leaf__0304_
*652 clknet_1_1__leaf__0676_
*653 clknet_1_1__leaf__0677_
*654 clknet_1_1__leaf__0697_
*655 clknet_1_1__leaf__0698_
*656 clknet_1_1__leaf_clk
*657 net1
*658 net100
*659 net101
*660 net102
*661 net103
*662 net104
*663 net105
*664 net106
*665 net107
*666 net108
*667 net109
*668 net110
*669 net111
*670 net112
*671 net113
*672 net114
*673 net115
*674 net116
*675 net117
*676 net118
*677 net119
*678 net120
*679 net121
*680 net122
*681 net123
*682 net124
*683 net125
*684 net126
*685 net127
*686 net128
*687 net129
*688 net130
*689 net131
*690 net132
*691 net133
*692 net134
*693 net135
*694 net136
*695 net137
*696 net138
*697 net139
*698 net140
*699 net141
*700 net142
*701 net143
*702 net144
*703 net145
*704 net146
*705 net147
*706 net148
*707 net149
*708 net150
*709 net151
*710 net152
*711 net153
*712 net154
*713 net155
*714 net156
*715 net157
*716 net158
*717 net159
*718 net160
*719 net161
*720 net162
*721 net163
*722 net164
*723 net165
*724 net166
*725 net167
*726 net168
*727 net169
*728 net170
*729 net171
*730 net172
*731 net173
*732 net174
*733 net175
*734 net176
*735 net177
*736 net178
*737 net179
*738 net18
*739 net180
*740 net181
*741 net182
*742 net183
*743 net184
*744 net185
*745 net186
*746 net187
*747 net188
*748 net189
*749 net19
*750 net190
*751 net191
*752 net192
*753 net193
*754 net194
*755 net195
*756 net196
*757 net197
*758 net198
*759 net199
*760 net2
*761 net20
*762 net200
*763 net201
*764 net202
*765 net203
*766 net204
*767 net205
*768 net206
*769 net207
*770 net208
*771 net209
*772 net21
*773 net210
*774 net211
*775 net212
*776 net213
*777 net214
*778 net215
*779 net216
*780 net217
*781 net218
*782 net219
*783 net22
*784 net220
*785 net221
*786 net222
*787 net223
*788 net224
*789 net225
*790 net226
*791 net227
*792 net228
*793 net229
*794 net23
*795 net230
*796 net231
*797 net232
*798 net233
*799 net234
*800 net235
*801 net236
*802 net237
*803 net238
*804 net239
*805 net24
*806 net240
*807 net241
*808 net242
*809 net243
*810 net244
*811 net245
*812 net246
*813 net247
*814 net248
*815 net249
*816 net25
*817 net250
*818 net251
*819 net252
*820 net253
*821 net254
*822 net255
*823 net256
*824 net257
*825 net258
*826 net259
*827 net26
*828 net260
*829 net261
*830 net262
*831 net263
*832 net264
*833 net265
*834 net266
*835 net267
*836 net268
*837 net269
*838 net27
*839 net270
*840 net271
*841 net272
*842 net273
*843 net274
*844 net275
*845 net276
*846 net277
*847 net278
*848 net279
*849 net28
*850 net280
*851 net281
*852 net282
*853 net283
*854 net284
*855 net285
*856 net286
*857 net287
*858 net288
*859 net289
*860 net29
*861 net290
*862 net291
*863 net292
*864 net293
*865 net294
*866 net295
*867 net296
*868 net297
*869 net298
*870 net299
*871 net3
*872 net30
*873 net300
*874 net301
*875 net302
*876 net303
*877 net304
*878 net305
*879 net306
*880 net307
*881 net308
*882 net309
*883 net31
*884 net310
*885 net311
*886 net312
*887 net313
*888 net314
*889 net315
*890 net316
*891 net317
*892 net318
*893 net319
*894 net32
*895 net320
*896 net321
*897 net322
*898 net323
*899 net324
*900 net325
*901 net326
*902 net327
*903 net328
*904 net329
*905 net33
*906 net330
*907 net331
*908 net332
*909 net333
*910 net334
*911 net335
*912 net336
*913 net337
*914 net338
*915 net339
*916 net34
*917 net340
*918 net341
*919 net342
*920 net343
*921 net344
*922 net345
*923 net346
*924 net347
*925 net348
*926 net349
*927 net35
*928 net350
*929 net351
*930 net352
*931 net353
*932 net354
*933 net355
*934 net356
*935 net357
*936 net358
*937 net359
*938 net36
*939 net360
*940 net361
*941 net37
*942 net38
*943 net39
*944 net4
*945 net40
*946 net41
*947 net42
*948 net43
*949 net44
*950 net45
*951 net46
*952 net47
*953 net48
*954 net49
*955 net5
*956 net50
*957 net51
*958 net52
*959 net53
*960 net54
*961 net55
*962 net56
*963 net57
*964 net58
*965 net59
*966 net6
*967 net60
*968 net61
*969 net62
*970 net63
*971 net64
*972 net65
*973 net66
*974 net67
*975 net68
*976 net69
*977 net7
*978 net70
*979 net71
*980 net72
*981 net73
*982 net74
*983 net75
*984 net76
*985 net77
*986 net78
*987 net79
*988 net8
*989 net80
*990 net81
*991 net82
*992 net83
*993 net84
*994 net85
*995 net86
*996 net87
*997 net88
*998 net89
*999 net9
*1000 net90
*1001 net91
*1002 net92
*1003 net93
*1004 net94
*1005 net95
*1006 net96
*1007 net97
*1008 net98
*1009 net99
*1010 vga_spi_rom\.data_buffer\[0\]
*1011 vga_spi_rom\.data_buffer\[100\]
*1012 vga_spi_rom\.data_buffer\[101\]
*1013 vga_spi_rom\.data_buffer\[102\]
*1014 vga_spi_rom\.data_buffer\[103\]
*1015 vga_spi_rom\.data_buffer\[104\]
*1016 vga_spi_rom\.data_buffer\[105\]
*1017 vga_spi_rom\.data_buffer\[106\]
*1018 vga_spi_rom\.data_buffer\[107\]
*1019 vga_spi_rom\.data_buffer\[108\]
*1020 vga_spi_rom\.data_buffer\[109\]
*1021 vga_spi_rom\.data_buffer\[10\]
*1022 vga_spi_rom\.data_buffer\[110\]
*1023 vga_spi_rom\.data_buffer\[111\]
*1024 vga_spi_rom\.data_buffer\[112\]
*1025 vga_spi_rom\.data_buffer\[113\]
*1026 vga_spi_rom\.data_buffer\[114\]
*1027 vga_spi_rom\.data_buffer\[115\]
*1028 vga_spi_rom\.data_buffer\[116\]
*1029 vga_spi_rom\.data_buffer\[117\]
*1030 vga_spi_rom\.data_buffer\[118\]
*1031 vga_spi_rom\.data_buffer\[119\]
*1032 vga_spi_rom\.data_buffer\[11\]
*1033 vga_spi_rom\.data_buffer\[120\]
*1034 vga_spi_rom\.data_buffer\[121\]
*1035 vga_spi_rom\.data_buffer\[122\]
*1036 vga_spi_rom\.data_buffer\[123\]
*1037 vga_spi_rom\.data_buffer\[124\]
*1038 vga_spi_rom\.data_buffer\[125\]
*1039 vga_spi_rom\.data_buffer\[126\]
*1040 vga_spi_rom\.data_buffer\[127\]
*1041 vga_spi_rom\.data_buffer\[128\]
*1042 vga_spi_rom\.data_buffer\[129\]
*1043 vga_spi_rom\.data_buffer\[12\]
*1044 vga_spi_rom\.data_buffer\[130\]
*1045 vga_spi_rom\.data_buffer\[131\]
*1046 vga_spi_rom\.data_buffer\[132\]
*1047 vga_spi_rom\.data_buffer\[133\]
*1048 vga_spi_rom\.data_buffer\[134\]
*1049 vga_spi_rom\.data_buffer\[135\]
*1050 vga_spi_rom\.data_buffer\[13\]
*1051 vga_spi_rom\.data_buffer\[14\]
*1052 vga_spi_rom\.data_buffer\[15\]
*1053 vga_spi_rom\.data_buffer\[16\]
*1054 vga_spi_rom\.data_buffer\[17\]
*1055 vga_spi_rom\.data_buffer\[18\]
*1056 vga_spi_rom\.data_buffer\[19\]
*1057 vga_spi_rom\.data_buffer\[1\]
*1058 vga_spi_rom\.data_buffer\[20\]
*1059 vga_spi_rom\.data_buffer\[21\]
*1060 vga_spi_rom\.data_buffer\[22\]
*1061 vga_spi_rom\.data_buffer\[23\]
*1062 vga_spi_rom\.data_buffer\[24\]
*1063 vga_spi_rom\.data_buffer\[25\]
*1064 vga_spi_rom\.data_buffer\[26\]
*1065 vga_spi_rom\.data_buffer\[27\]
*1066 vga_spi_rom\.data_buffer\[28\]
*1067 vga_spi_rom\.data_buffer\[29\]
*1068 vga_spi_rom\.data_buffer\[2\]
*1069 vga_spi_rom\.data_buffer\[30\]
*1070 vga_spi_rom\.data_buffer\[31\]
*1071 vga_spi_rom\.data_buffer\[32\]
*1072 vga_spi_rom\.data_buffer\[33\]
*1073 vga_spi_rom\.data_buffer\[34\]
*1074 vga_spi_rom\.data_buffer\[35\]
*1075 vga_spi_rom\.data_buffer\[36\]
*1076 vga_spi_rom\.data_buffer\[37\]
*1077 vga_spi_rom\.data_buffer\[38\]
*1078 vga_spi_rom\.data_buffer\[39\]
*1079 vga_spi_rom\.data_buffer\[3\]
*1080 vga_spi_rom\.data_buffer\[40\]
*1081 vga_spi_rom\.data_buffer\[41\]
*1082 vga_spi_rom\.data_buffer\[42\]
*1083 vga_spi_rom\.data_buffer\[43\]
*1084 vga_spi_rom\.data_buffer\[44\]
*1085 vga_spi_rom\.data_buffer\[45\]
*1086 vga_spi_rom\.data_buffer\[46\]
*1087 vga_spi_rom\.data_buffer\[47\]
*1088 vga_spi_rom\.data_buffer\[48\]
*1089 vga_spi_rom\.data_buffer\[49\]
*1090 vga_spi_rom\.data_buffer\[4\]
*1091 vga_spi_rom\.data_buffer\[50\]
*1092 vga_spi_rom\.data_buffer\[51\]
*1093 vga_spi_rom\.data_buffer\[52\]
*1094 vga_spi_rom\.data_buffer\[53\]
*1095 vga_spi_rom\.data_buffer\[54\]
*1096 vga_spi_rom\.data_buffer\[55\]
*1097 vga_spi_rom\.data_buffer\[56\]
*1098 vga_spi_rom\.data_buffer\[57\]
*1099 vga_spi_rom\.data_buffer\[58\]
*1100 vga_spi_rom\.data_buffer\[59\]
*1101 vga_spi_rom\.data_buffer\[5\]
*1102 vga_spi_rom\.data_buffer\[60\]
*1103 vga_spi_rom\.data_buffer\[61\]
*1104 vga_spi_rom\.data_buffer\[62\]
*1105 vga_spi_rom\.data_buffer\[63\]
*1106 vga_spi_rom\.data_buffer\[64\]
*1107 vga_spi_rom\.data_buffer\[65\]
*1108 vga_spi_rom\.data_buffer\[66\]
*1109 vga_spi_rom\.data_buffer\[67\]
*1110 vga_spi_rom\.data_buffer\[68\]
*1111 vga_spi_rom\.data_buffer\[69\]
*1112 vga_spi_rom\.data_buffer\[6\]
*1113 vga_spi_rom\.data_buffer\[70\]
*1114 vga_spi_rom\.data_buffer\[71\]
*1115 vga_spi_rom\.data_buffer\[72\]
*1116 vga_spi_rom\.data_buffer\[73\]
*1117 vga_spi_rom\.data_buffer\[74\]
*1118 vga_spi_rom\.data_buffer\[75\]
*1119 vga_spi_rom\.data_buffer\[76\]
*1120 vga_spi_rom\.data_buffer\[77\]
*1121 vga_spi_rom\.data_buffer\[78\]
*1122 vga_spi_rom\.data_buffer\[79\]
*1123 vga_spi_rom\.data_buffer\[7\]
*1124 vga_spi_rom\.data_buffer\[80\]
*1125 vga_spi_rom\.data_buffer\[81\]
*1126 vga_spi_rom\.data_buffer\[82\]
*1127 vga_spi_rom\.data_buffer\[83\]
*1128 vga_spi_rom\.data_buffer\[84\]
*1129 vga_spi_rom\.data_buffer\[85\]
*1130 vga_spi_rom\.data_buffer\[86\]
*1131 vga_spi_rom\.data_buffer\[87\]
*1132 vga_spi_rom\.data_buffer\[88\]
*1133 vga_spi_rom\.data_buffer\[89\]
*1134 vga_spi_rom\.data_buffer\[8\]
*1135 vga_spi_rom\.data_buffer\[90\]
*1136 vga_spi_rom\.data_buffer\[91\]
*1137 vga_spi_rom\.data_buffer\[92\]
*1138 vga_spi_rom\.data_buffer\[93\]
*1139 vga_spi_rom\.data_buffer\[94\]
*1140 vga_spi_rom\.data_buffer\[95\]
*1141 vga_spi_rom\.data_buffer\[96\]
*1142 vga_spi_rom\.data_buffer\[97\]
*1143 vga_spi_rom\.data_buffer\[98\]
*1144 vga_spi_rom\.data_buffer\[99\]
*1145 vga_spi_rom\.data_buffer\[9\]
*1146 vga_spi_rom\.data_index\[3\]
*1147 vga_spi_rom\.hpos\[0\]
*1148 vga_spi_rom\.hpos\[1\]
*1149 vga_spi_rom\.hpos\[2\]
*1150 vga_spi_rom\.hpos\[4\]
*1151 vga_spi_rom\.hpos\[5\]
*1152 vga_spi_rom\.hpos\[6\]
*1153 vga_spi_rom\.hpos\[7\]
*1154 vga_spi_rom\.hpos\[8\]
*1155 vga_spi_rom\.hpos\[9\]
*1156 vga_spi_rom\.hsync
*1157 vga_spi_rom\.hsync_n
*1158 vga_spi_rom\.spi_mosi
*1159 vga_spi_rom\.vga_sync\.vpos\[0\]
*1160 vga_spi_rom\.vga_sync\.vpos\[1\]
*1161 vga_spi_rom\.vga_sync\.vpos\[2\]
*1162 vga_spi_rom\.vga_sync\.vpos\[3\]
*1163 vga_spi_rom\.vga_sync\.vpos\[4\]
*1164 vga_spi_rom\.vga_sync\.vpos\[5\]
*1165 vga_spi_rom\.vga_sync\.vpos\[6\]
*1166 vga_spi_rom\.vga_sync\.vpos\[7\]
*1167 vga_spi_rom\.vga_sync\.vpos\[8\]
*1168 vga_spi_rom\.vga_sync\.vpos\[9\]
*1169 vga_spi_rom\.vga_sync\.vsync
*1170 vga_spi_rom\.vsync_n
*1171 ANTENNA_1
*1172 ANTENNA_2
*1173 ANTENNA_3
*1174 FILLER_0_0_109
*1175 FILLER_0_0_113
*1176 FILLER_0_0_125
*1177 FILLER_0_0_137
*1178 FILLER_0_0_141
*1179 FILLER_0_0_15
*1180 FILLER_0_0_153
*1181 FILLER_0_0_165
*1182 FILLER_0_0_169
*1183 FILLER_0_0_181
*1184 FILLER_0_0_193
*1185 FILLER_0_0_197
*1186 FILLER_0_0_209
*1187 FILLER_0_0_221
*1188 FILLER_0_0_225
*1189 FILLER_0_0_237
*1190 FILLER_0_0_249
*1191 FILLER_0_0_253
*1192 FILLER_0_0_265
*1193 FILLER_0_0_27
*1194 FILLER_0_0_277
*1195 FILLER_0_0_281
*1196 FILLER_0_0_29
*1197 FILLER_0_0_293
*1198 FILLER_0_0_3
*1199 FILLER_0_0_305
*1200 FILLER_0_0_309
*1201 FILLER_0_0_321
*1202 FILLER_0_0_333
*1203 FILLER_0_0_337
*1204 FILLER_0_0_349
*1205 FILLER_0_0_41
*1206 FILLER_0_0_53
*1207 FILLER_0_0_57
*1208 FILLER_0_0_69
*1209 FILLER_0_0_81
*1210 FILLER_0_0_85
*1211 FILLER_0_0_97
*1212 FILLER_0_10_105
*1213 FILLER_0_10_109
*1214 FILLER_0_10_121
*1215 FILLER_0_10_133
*1216 FILLER_0_10_168
*1217 FILLER_0_10_187
*1218 FILLER_0_10_195
*1219 FILLER_0_10_197
*1220 FILLER_0_10_205
*1221 FILLER_0_10_219
*1222 FILLER_0_10_22
*1223 FILLER_0_10_231
*1224 FILLER_0_10_235
*1225 FILLER_0_10_245
*1226 FILLER_0_10_251
*1227 FILLER_0_10_270
*1228 FILLER_0_10_277
*1229 FILLER_0_10_297
*1230 FILLER_0_10_333
*1231 FILLER_0_10_345
*1232 FILLER_0_10_38
*1233 FILLER_0_10_78
*1234 FILLER_0_10_85
*1235 FILLER_0_11_105
*1236 FILLER_0_11_113
*1237 FILLER_0_11_127
*1238 FILLER_0_11_140
*1239 FILLER_0_11_15
*1240 FILLER_0_11_164
*1241 FILLER_0_11_197
*1242 FILLER_0_11_216
*1243 FILLER_0_11_241
*1244 FILLER_0_11_279
*1245 FILLER_0_11_28
*1246 FILLER_0_11_281
*1247 FILLER_0_11_3
*1248 FILLER_0_11_300
*1249 FILLER_0_11_319
*1250 FILLER_0_11_348
*1251 FILLER_0_11_54
*1252 FILLER_0_11_60
*1253 FILLER_0_11_78
*1254 FILLER_0_11_84
*1255 FILLER_0_12_119
*1256 FILLER_0_12_129
*1257 FILLER_0_12_157
*1258 FILLER_0_12_16
*1259 FILLER_0_12_168
*1260 FILLER_0_12_195
*1261 FILLER_0_12_205
*1262 FILLER_0_12_214
*1263 FILLER_0_12_222
*1264 FILLER_0_12_253
*1265 FILLER_0_12_257
*1266 FILLER_0_12_29
*1267 FILLER_0_12_3
*1268 FILLER_0_12_309
*1269 FILLER_0_12_331
*1270 FILLER_0_12_349
*1271 FILLER_0_12_66
*1272 FILLER_0_12_70
*1273 FILLER_0_12_81
*1274 FILLER_0_12_85
*1275 FILLER_0_12_89
*1276 FILLER_0_12_9
*1277 FILLER_0_13_107
*1278 FILLER_0_13_111
*1279 FILLER_0_13_113
*1280 FILLER_0_13_133
*1281 FILLER_0_13_165
*1282 FILLER_0_13_169
*1283 FILLER_0_13_201
*1284 FILLER_0_13_223
*1285 FILLER_0_13_23
*1286 FILLER_0_13_245
*1287 FILLER_0_13_258
*1288 FILLER_0_13_3
*1289 FILLER_0_13_308
*1290 FILLER_0_13_335
*1291 FILLER_0_13_51
*1292 FILLER_0_13_73
*1293 FILLER_0_13_91
*1294 FILLER_0_13_97
*1295 FILLER_0_14_10
*1296 FILLER_0_14_114
*1297 FILLER_0_14_133
*1298 FILLER_0_14_141
*1299 FILLER_0_14_194
*1300 FILLER_0_14_197
*1301 FILLER_0_14_205
*1302 FILLER_0_14_215
*1303 FILLER_0_14_251
*1304 FILLER_0_14_286
*1305 FILLER_0_14_3
*1306 FILLER_0_14_309
*1307 FILLER_0_14_334
*1308 FILLER_0_14_45
*1309 FILLER_0_14_49
*1310 FILLER_0_14_79
*1311 FILLER_0_14_83
*1312 FILLER_0_15_116
*1313 FILLER_0_15_169
*1314 FILLER_0_15_184
*1315 FILLER_0_15_201
*1316 FILLER_0_15_207
*1317 FILLER_0_15_215
*1318 FILLER_0_15_223
*1319 FILLER_0_15_23
*1320 FILLER_0_15_231
*1321 FILLER_0_15_243
*1322 FILLER_0_15_251
*1323 FILLER_0_15_3
*1324 FILLER_0_15_331
*1325 FILLER_0_15_335
*1326 FILLER_0_15_348
*1327 FILLER_0_15_38
*1328 FILLER_0_15_96
*1329 FILLER_0_16_132
*1330 FILLER_0_16_136
*1331 FILLER_0_16_157
*1332 FILLER_0_16_195
*1333 FILLER_0_16_205
*1334 FILLER_0_16_215
*1335 FILLER_0_16_223
*1336 FILLER_0_16_253
*1337 FILLER_0_16_262
*1338 FILLER_0_16_309
*1339 FILLER_0_16_348
*1340 FILLER_0_16_70
*1341 FILLER_0_16_78
*1342 FILLER_0_16_88
*1343 FILLER_0_16_94
*1344 FILLER_0_17_101
*1345 FILLER_0_17_105
*1346 FILLER_0_17_146
*1347 FILLER_0_17_166
*1348 FILLER_0_17_183
*1349 FILLER_0_17_203
*1350 FILLER_0_17_209
*1351 FILLER_0_17_216
*1352 FILLER_0_17_225
*1353 FILLER_0_17_229
*1354 FILLER_0_17_239
*1355 FILLER_0_17_248
*1356 FILLER_0_17_256
*1357 FILLER_0_17_274
*1358 FILLER_0_17_29
*1359 FILLER_0_17_3
*1360 FILLER_0_17_301
*1361 FILLER_0_17_33
*1362 FILLER_0_17_345
*1363 FILLER_0_17_60
*1364 FILLER_0_17_93
*1365 FILLER_0_18_105
*1366 FILLER_0_18_122
*1367 FILLER_0_18_150
*1368 FILLER_0_18_200
*1369 FILLER_0_18_223
*1370 FILLER_0_18_25
*1371 FILLER_0_18_250
*1372 FILLER_0_18_253
*1373 FILLER_0_18_265
*1374 FILLER_0_18_271
*1375 FILLER_0_18_29
*1376 FILLER_0_18_295
*1377 FILLER_0_18_306
*1378 FILLER_0_18_325
*1379 FILLER_0_18_33
*1380 FILLER_0_18_347
*1381 FILLER_0_18_73
*1382 FILLER_0_18_81
*1383 FILLER_0_19_106
*1384 FILLER_0_19_110
*1385 FILLER_0_19_113
*1386 FILLER_0_19_132
*1387 FILLER_0_19_161
*1388 FILLER_0_19_169
*1389 FILLER_0_19_200
*1390 FILLER_0_19_215
*1391 FILLER_0_19_223
*1392 FILLER_0_19_225
*1393 FILLER_0_19_23
*1394 FILLER_0_19_237
*1395 FILLER_0_19_241
*1396 FILLER_0_19_258
*1397 FILLER_0_19_281
*1398 FILLER_0_19_290
*1399 FILLER_0_19_305
*1400 FILLER_0_19_315
*1401 FILLER_0_19_345
*1402 FILLER_0_19_50
*1403 FILLER_0_19_80
*1404 FILLER_0_1_105
*1405 FILLER_0_1_111
*1406 FILLER_0_1_113
*1407 FILLER_0_1_125
*1408 FILLER_0_1_137
*1409 FILLER_0_1_149
*1410 FILLER_0_1_15
*1411 FILLER_0_1_161
*1412 FILLER_0_1_167
*1413 FILLER_0_1_169
*1414 FILLER_0_1_181
*1415 FILLER_0_1_193
*1416 FILLER_0_1_205
*1417 FILLER_0_1_217
*1418 FILLER_0_1_223
*1419 FILLER_0_1_225
*1420 FILLER_0_1_237
*1421 FILLER_0_1_249
*1422 FILLER_0_1_261
*1423 FILLER_0_1_27
*1424 FILLER_0_1_273
*1425 FILLER_0_1_279
*1426 FILLER_0_1_281
*1427 FILLER_0_1_293
*1428 FILLER_0_1_3
*1429 FILLER_0_1_305
*1430 FILLER_0_1_317
*1431 FILLER_0_1_329
*1432 FILLER_0_1_335
*1433 FILLER_0_1_337
*1434 FILLER_0_1_349
*1435 FILLER_0_1_39
*1436 FILLER_0_1_51
*1437 FILLER_0_1_55
*1438 FILLER_0_1_57
*1439 FILLER_0_1_69
*1440 FILLER_0_1_81
*1441 FILLER_0_1_93
*1442 FILLER_0_20_110
*1443 FILLER_0_20_118
*1444 FILLER_0_20_124
*1445 FILLER_0_20_130
*1446 FILLER_0_20_134
*1447 FILLER_0_20_14
*1448 FILLER_0_20_141
*1449 FILLER_0_20_145
*1450 FILLER_0_20_154
*1451 FILLER_0_20_171
*1452 FILLER_0_20_197
*1453 FILLER_0_20_201
*1454 FILLER_0_20_227
*1455 FILLER_0_20_239
*1456 FILLER_0_20_246
*1457 FILLER_0_20_261
*1458 FILLER_0_20_270
*1459 FILLER_0_20_278
*1460 FILLER_0_20_284
*1461 FILLER_0_20_288
*1462 FILLER_0_20_29
*1463 FILLER_0_20_298
*1464 FILLER_0_20_3
*1465 FILLER_0_20_307
*1466 FILLER_0_20_318
*1467 FILLER_0_20_7
*1468 FILLER_0_21_111
*1469 FILLER_0_21_119
*1470 FILLER_0_21_130
*1471 FILLER_0_21_137
*1472 FILLER_0_21_141
*1473 FILLER_0_21_151
*1474 FILLER_0_21_155
*1475 FILLER_0_21_161
*1476 FILLER_0_21_167
*1477 FILLER_0_21_186
*1478 FILLER_0_21_21
*1479 FILLER_0_21_213
*1480 FILLER_0_21_221
*1481 FILLER_0_21_249
*1482 FILLER_0_21_278
*1483 FILLER_0_21_3
*1484 FILLER_0_21_313
*1485 FILLER_0_21_335
*1486 FILLER_0_21_345
*1487 FILLER_0_21_87
*1488 FILLER_0_22_115
*1489 FILLER_0_22_122
*1490 FILLER_0_22_144
*1491 FILLER_0_22_16
*1492 FILLER_0_22_162
*1493 FILLER_0_22_188
*1494 FILLER_0_22_205
*1495 FILLER_0_22_209
*1496 FILLER_0_22_213
*1497 FILLER_0_22_235
*1498 FILLER_0_22_256
*1499 FILLER_0_22_292
*1500 FILLER_0_22_3
*1501 FILLER_0_22_301
*1502 FILLER_0_22_307
*1503 FILLER_0_22_309
*1504 FILLER_0_22_332
*1505 FILLER_0_22_350
*1506 FILLER_0_22_66
*1507 FILLER_0_22_83
*1508 FILLER_0_22_88
*1509 FILLER_0_22_9
*1510 FILLER_0_22_99
*1511 FILLER_0_23_107
*1512 FILLER_0_23_111
*1513 FILLER_0_23_113
*1514 FILLER_0_23_130
*1515 FILLER_0_23_172
*1516 FILLER_0_23_176
*1517 FILLER_0_23_193
*1518 FILLER_0_23_203
*1519 FILLER_0_23_221
*1520 FILLER_0_23_225
*1521 FILLER_0_23_251
*1522 FILLER_0_23_259
*1523 FILLER_0_23_26
*1524 FILLER_0_23_284
*1525 FILLER_0_23_3
*1526 FILLER_0_23_301
*1527 FILLER_0_23_305
*1528 FILLER_0_23_346
*1529 FILLER_0_23_35
*1530 FILLER_0_23_350
*1531 FILLER_0_23_55
*1532 FILLER_0_23_57
*1533 FILLER_0_23_87
*1534 FILLER_0_23_9
*1535 FILLER_0_24_101
*1536 FILLER_0_24_138
*1537 FILLER_0_24_141
*1538 FILLER_0_24_156
*1539 FILLER_0_24_163
*1540 FILLER_0_24_175
*1541 FILLER_0_24_183
*1542 FILLER_0_24_195
*1543 FILLER_0_24_197
*1544 FILLER_0_24_23
*1545 FILLER_0_24_250
*1546 FILLER_0_24_261
*1547 FILLER_0_24_329
*1548 FILLER_0_24_51
*1549 FILLER_0_24_85
*1550 FILLER_0_25_108
*1551 FILLER_0_25_141
*1552 FILLER_0_25_151
*1553 FILLER_0_25_177
*1554 FILLER_0_25_193
*1555 FILLER_0_25_199
*1556 FILLER_0_25_209
*1557 FILLER_0_25_219
*1558 FILLER_0_25_22
*1559 FILLER_0_25_223
*1560 FILLER_0_25_259
*1561 FILLER_0_25_270
*1562 FILLER_0_25_299
*1563 FILLER_0_25_3
*1564 FILLER_0_25_349
*1565 FILLER_0_25_84
*1566 FILLER_0_25_88
*1567 FILLER_0_26_10
*1568 FILLER_0_26_109
*1569 FILLER_0_26_120
*1570 FILLER_0_26_128
*1571 FILLER_0_26_149
*1572 FILLER_0_26_16
*1573 FILLER_0_26_161
*1574 FILLER_0_26_173
*1575 FILLER_0_26_177
*1576 FILLER_0_26_185
*1577 FILLER_0_26_193
*1578 FILLER_0_26_197
*1579 FILLER_0_26_248
*1580 FILLER_0_26_26
*1581 FILLER_0_26_281
*1582 FILLER_0_26_3
*1583 FILLER_0_26_306
*1584 FILLER_0_26_309
*1585 FILLER_0_26_37
*1586 FILLER_0_26_79
*1587 FILLER_0_26_83
*1588 FILLER_0_26_85
*1589 FILLER_0_26_89
*1590 FILLER_0_27_109
*1591 FILLER_0_27_12
*1592 FILLER_0_27_128
*1593 FILLER_0_27_154
*1594 FILLER_0_27_174
*1595 FILLER_0_27_191
*1596 FILLER_0_27_195
*1597 FILLER_0_27_202
*1598 FILLER_0_27_209
*1599 FILLER_0_27_221
*1600 FILLER_0_27_24
*1601 FILLER_0_27_241
*1602 FILLER_0_27_274
*1603 FILLER_0_27_279
*1604 FILLER_0_27_281
*1605 FILLER_0_27_293
*1606 FILLER_0_27_3
*1607 FILLER_0_27_320
*1608 FILLER_0_27_324
*1609 FILLER_0_27_348
*1610 FILLER_0_27_53
*1611 FILLER_0_27_57
*1612 FILLER_0_27_72
*1613 FILLER_0_28_127
*1614 FILLER_0_28_164
*1615 FILLER_0_28_176
*1616 FILLER_0_28_182
*1617 FILLER_0_28_191
*1618 FILLER_0_28_195
*1619 FILLER_0_28_197
*1620 FILLER_0_28_201
*1621 FILLER_0_28_21
*1622 FILLER_0_28_219
*1623 FILLER_0_28_230
*1624 FILLER_0_28_251
*1625 FILLER_0_28_260
*1626 FILLER_0_28_27
*1627 FILLER_0_28_282
*1628 FILLER_0_28_29
*1629 FILLER_0_28_3
*1630 FILLER_0_28_300
*1631 FILLER_0_28_304
*1632 FILLER_0_28_314
*1633 FILLER_0_28_345
*1634 FILLER_0_28_47
*1635 FILLER_0_28_77
*1636 FILLER_0_28_82
*1637 FILLER_0_29_105
*1638 FILLER_0_29_111
*1639 FILLER_0_29_156
*1640 FILLER_0_29_179
*1641 FILLER_0_29_196
*1642 FILLER_0_29_202
*1643 FILLER_0_29_216
*1644 FILLER_0_29_25
*1645 FILLER_0_29_255
*1646 FILLER_0_29_268
*1647 FILLER_0_29_281
*1648 FILLER_0_29_3
*1649 FILLER_0_29_322
*1650 FILLER_0_29_331
*1651 FILLER_0_29_335
*1652 FILLER_0_29_348
*1653 FILLER_0_29_50
*1654 FILLER_0_29_96
*1655 FILLER_0_2_109
*1656 FILLER_0_2_121
*1657 FILLER_0_2_127
*1658 FILLER_0_2_139
*1659 FILLER_0_2_141
*1660 FILLER_0_2_15
*1661 FILLER_0_2_153
*1662 FILLER_0_2_165
*1663 FILLER_0_2_177
*1664 FILLER_0_2_189
*1665 FILLER_0_2_195
*1666 FILLER_0_2_197
*1667 FILLER_0_2_209
*1668 FILLER_0_2_221
*1669 FILLER_0_2_233
*1670 FILLER_0_2_245
*1671 FILLER_0_2_251
*1672 FILLER_0_2_253
*1673 FILLER_0_2_265
*1674 FILLER_0_2_27
*1675 FILLER_0_2_277
*1676 FILLER_0_2_289
*1677 FILLER_0_2_29
*1678 FILLER_0_2_3
*1679 FILLER_0_2_301
*1680 FILLER_0_2_307
*1681 FILLER_0_2_309
*1682 FILLER_0_2_321
*1683 FILLER_0_2_333
*1684 FILLER_0_2_345
*1685 FILLER_0_2_41
*1686 FILLER_0_2_53
*1687 FILLER_0_2_65
*1688 FILLER_0_2_77
*1689 FILLER_0_2_83