*SPEF "ieee 1481-1999"
*DESIGN "tt_um_algofoogle_vga_spi_rom"
*DATE "11:11:11 Fri 11 11, 1111"
*VENDOR "OpenRCX"
*PROGRAM "Parallel Extraction"
*VERSION "1.0"
*DESIGN_FLOW "NAME_SCOPE LOCAL" "PIN_CAP NONE"
*DIVIDER /
*DELIMITER :
*BUS_DELIMITER []
*T_UNIT 1 NS
*C_UNIT 1 PF
*R_UNIT 1 OHM
*L_UNIT 1 HENRY

*NAME_MAP
*3 clk
*4 ena
*5 rst_n
*6 ui_in[0]
*7 ui_in[1]
*8 ui_in[2]
*9 ui_in[3]
*10 ui_in[4]
*11 ui_in[5]
*12 ui_in[6]
*13 ui_in[7]
*14 uio_in[0]
*15 uio_in[1]
*16 uio_in[2]
*17 uio_in[3]
*18 uio_in[4]
*19 uio_in[5]
*20 uio_in[6]
*21 uio_in[7]
*22 net11
*23 net12
*24 net13
*25 net14
*26 net15
*27 net16
*28 net17
*29 net18
*30 uio_out[0]
*31 uio_out[1]
*32 uio_out[2]
*33 uio_out[3]
*34 uio_out[4]
*35 uio_out[5]
*36 uio_out[6]
*37 uio_out[7]
*38 uo_out[0]
*39 uo_out[1]
*40 uo_out[2]
*41 uo_out[3]
*42 uo_out[4]
*43 uo_out[5]
*44 uo_out[6]
*45 uo_out[7]
*46 _0120_
*47 _0121_
*48 _0122_
*49 _0123_
*50 _0124_
*51 _0125_
*52 _0126_
*53 _0127_
*54 _0128_
*55 _0129_
*56 _0130_
*57 _0131_
*58 _0132_
*59 _0133_
*60 _0134_
*61 _0135_
*62 _0136_
*63 _0137_
*64 _0138_
*65 _0139_
*66 _0140_
*67 _0141_
*68 _0142_
*69 _0143_
*70 _0144_
*71 _0145_
*72 _0146_
*73 _0147_
*74 _0148_
*75 _0149_
*76 _0150_
*77 _0151_
*78 _0152_
*79 _0153_
*80 _0154_
*81 _0155_
*82 _0156_
*83 _0157_
*84 _0158_
*85 _0159_
*86 _0160_
*87 _0161_
*88 _0162_
*89 _0163_
*90 _0164_
*91 _0165_
*92 _0166_
*93 _0167_
*94 _0168_
*95 _0169_
*96 _0170_
*97 _0171_
*98 _0172_
*99 _0173_
*100 _0174_
*101 _0175_
*102 _0176_
*103 _0177_
*104 _0178_
*105 _0179_
*106 _0180_
*107 _0181_
*108 _0182_
*109 _0183_
*110 _0184_
*111 _0185_
*112 _0186_
*113 _0187_
*114 _0188_
*115 _0189_
*116 _0190_
*117 _0191_
*118 _0192_
*119 _0193_
*120 _0194_
*121 _0195_
*122 _0196_
*123 _0197_
*124 _0198_
*125 _0199_
*126 _0200_
*127 _0201_
*128 _0202_
*129 _0203_
*130 _0204_
*131 _0205_
*132 _0206_
*133 _0207_
*134 _0208_
*135 _0209_
*136 _0210_
*137 _0211_
*138 _0212_
*139 _0213_
*140 _0214_
*141 _0215_
*142 _0216_
*143 _0217_
*144 _0218_
*145 _0219_
*146 _0220_
*147 _0221_
*148 _0222_
*149 _0223_
*150 _0224_
*151 _0225_
*152 _0226_
*153 _0227_
*154 _0228_
*155 _0229_
*156 _0230_
*157 _0231_
*158 _0232_
*159 _0233_
*160 _0234_
*161 _0235_
*162 _0236_
*163 _0237_
*164 _0238_
*165 _0239_
*166 _0240_
*167 _0241_
*168 _0242_
*169 _0243_
*170 _0244_
*171 _0245_
*172 _0246_
*173 _0247_
*174 _0248_
*175 _0249_
*176 _0250_
*177 _0251_
*178 _0252_
*179 _0253_
*180 _0254_
*181 _0255_
*182 _0256_
*183 _0257_
*184 _0258_
*185 _0259_
*186 _0260_
*187 _0261_
*188 _0262_
*189 _0263_
*190 _0264_
*191 _0265_
*192 _0266_
*193 _0267_
*194 _0268_
*195 _0269_
*196 _0270_
*197 _0271_
*198 _0272_
*199 _0273_
*200 _0274_
*201 _0275_
*202 _0276_
*203 _0277_
*204 _0278_
*205 _0279_
*206 _0280_
*207 _0281_
*208 _0282_
*209 _0283_
*210 _0284_
*211 _0285_
*212 _0286_
*213 _0287_
*214 _0288_
*215 _0289_
*216 _0290_
*217 _0291_
*218 _0292_
*219 _0293_
*220 _0294_
*221 _0295_
*222 _0296_
*223 _0297_
*224 _0298_
*225 _0299_
*226 _0300_
*227 _0301_
*228 _0302_
*229 _0303_
*230 _0304_
*231 _0305_
*232 _0306_
*233 _0307_
*234 _0308_
*235 _0309_
*236 _0310_
*237 _0311_
*238 _0312_
*239 _0313_
*240 _0314_
*241 _0315_
*242 _0316_
*243 _0317_
*244 _0318_
*245 _0319_
*246 _0320_
*247 _0321_
*248 _0322_
*249 _0323_
*250 _0324_
*251 _0325_
*252 _0326_
*253 _0327_
*254 _0328_
*255 _0329_
*256 _0330_
*257 _0331_
*258 _0332_
*259 _0333_
*260 _0334_
*261 _0335_
*262 _0336_
*263 _0337_
*264 _0338_
*265 _0339_
*266 _0340_
*267 _0341_
*268 _0342_
*269 _0343_
*270 _0344_
*271 _0345_
*272 _0346_
*273 _0347_
*274 _0348_
*275 _0349_
*276 _0350_
*277 _0351_
*278 _0352_
*279 _0353_
*280 _0354_
*281 _0355_
*282 _0356_
*283 _0357_
*284 _0358_
*285 _0359_
*286 _0360_
*287 _0361_
*288 _0362_
*289 _0363_
*290 _0364_
*291 _0365_
*292 _0366_
*293 _0367_
*294 _0368_
*295 _0369_
*296 _0370_
*297 _0371_
*298 _0372_
*299 _0373_
*300 _0374_
*301 _0375_
*302 _0376_
*303 _0377_
*304 _0378_
*305 _0379_
*306 _0380_
*307 _0381_
*308 _0382_
*309 _0383_
*310 _0384_
*311 _0385_
*312 _0386_
*313 _0387_
*314 _0388_
*315 _0389_
*316 _0390_
*317 _0391_
*318 _0392_
*319 _0393_
*320 _0394_
*321 _0395_
*322 _0396_
*323 _0397_
*324 _0398_
*325 _0399_
*326 _0400_
*327 _0401_
*328 _0402_
*329 _0403_
*330 _0404_
*331 _0405_
*332 _0406_
*333 _0407_
*334 _0408_
*335 _0409_
*336 _0410_
*337 _0411_
*338 _0412_
*339 _0413_
*340 _0414_
*341 _0415_
*342 _0416_
*343 _0417_
*344 _0418_
*345 _0419_
*346 _0420_
*347 _0421_
*348 _0422_
*349 _0423_
*350 _0424_
*351 _0425_
*352 _0426_
*353 _0427_
*354 _0428_
*355 _0429_
*356 _0430_
*357 _0431_
*358 _0432_
*359 _0433_
*360 _0434_
*361 _0435_
*362 _0436_
*363 _0437_
*364 _0438_
*365 _0439_
*366 _0440_
*367 _0441_
*368 _0442_
*369 _0443_
*370 _0444_
*371 _0445_
*372 _0446_
*373 _0447_
*374 _0448_
*375 _0449_
*376 _0450_
*377 _0451_
*378 _0452_
*379 _0453_
*380 _0454_
*381 _0455_
*382 _0456_
*383 _0457_
*384 _0458_
*385 _0459_
*386 _0460_
*387 _0461_
*388 _0462_
*389 _0463_
*390 _0464_
*391 _0465_
*392 _0466_
*393 _0467_
*394 _0468_
*395 _0469_
*396 _0470_
*397 _0471_
*398 _0472_
*399 _0473_
*400 _0474_
*401 _0475_
*402 _0476_
*403 _0477_
*404 _0478_
*405 _0479_
*406 _0480_
*407 _0481_
*408 _0482_
*409 _0483_
*410 _0484_
*411 _0485_
*412 _0486_
*413 _0487_
*414 _0488_
*415 _0489_
*416 _0490_
*417 _0491_
*418 _0492_
*419 _0493_
*420 _0494_
*421 _0495_
*422 _0496_
*423 _0497_
*424 _0498_
*425 _0499_
*426 _0500_
*427 _0501_
*428 _0502_
*429 _0503_
*430 _0504_
*431 _0505_
*432 _0506_
*433 _0507_
*434 _0508_
*435 _0509_
*436 _0510_
*437 _0511_
*438 _0512_
*439 _0513_
*440 _0514_
*441 _0515_
*442 _0516_
*443 _0517_
*444 _0518_
*445 _0519_
*446 _0520_
*447 _0521_
*448 _0522_
*449 _0523_
*450 _0524_
*451 _0525_
*452 _0526_
*453 _0527_
*454 _0528_
*455 _0529_
*456 _0530_
*457 _0531_
*458 _0532_
*459 _0533_
*460 _0534_
*461 _0535_
*462 _0536_
*463 _0537_
*464 _0538_
*465 _0539_
*466 _0540_
*467 _0541_
*468 _0542_
*469 _0543_
*470 _0544_
*471 _0545_
*472 _0546_
*473 _0547_
*474 _0548_
*475 _0549_
*476 _0550_
*477 _0551_
*478 _0552_
*479 _0553_
*480 _0554_
*481 _0555_
*482 _0556_
*483 _0557_
*484 _0558_
*485 clknet_0__0458_
*486 clknet_0__0459_
*487 clknet_0__0460_
*488 clknet_0__0461_
*489 clknet_0__0462_
*490 clknet_0__0463_
*491 clknet_0__0464_
*492 clknet_0__0465_
*493 clknet_0__0466_
*494 clknet_0__0467_
*495 clknet_0__0468_
*496 clknet_0__0469_
*497 clknet_0__0470_
*498 clknet_0_clk
*499 clknet_1_0__leaf__0458_
*500 clknet_1_0__leaf__0459_
*501 clknet_1_0__leaf__0460_
*502 clknet_1_0__leaf__0461_
*503 clknet_1_0__leaf__0462_
*504 clknet_1_0__leaf__0463_
*505 clknet_1_0__leaf__0464_
*506 clknet_1_0__leaf__0465_
*507 clknet_1_0__leaf__0466_
*508 clknet_1_0__leaf__0467_
*509 clknet_1_0__leaf__0468_
*510 clknet_1_0__leaf__0469_
*511 clknet_1_0__leaf__0470_
*512 clknet_1_1__leaf__0458_
*513 clknet_1_1__leaf__0459_
*514 clknet_1_1__leaf__0460_
*515 clknet_1_1__leaf__0461_
*516 clknet_1_1__leaf__0462_
*517 clknet_1_1__leaf__0463_
*518 clknet_1_1__leaf__0464_
*519 clknet_1_1__leaf__0465_
*520 clknet_1_1__leaf__0466_
*521 clknet_1_1__leaf__0467_
*522 clknet_1_1__leaf__0468_
*523 clknet_1_1__leaf__0469_
*524 clknet_1_1__leaf__0470_
*525 clknet_2_0__leaf_clk
*526 clknet_2_1__leaf_clk
*527 clknet_2_2__leaf_clk
*528 clknet_2_3__leaf_clk
*529 net1
*530 net10
*531 net100
*532 net101
*533 net102
*534 net103
*535 net104
*536 net105
*537 net106
*538 net107
*539 net108
*540 net109
*541 net110
*542 net111
*543 net112
*544 net113
*545 net114
*546 net115
*547 net116
*548 net117
*549 net118
*550 net119
*551 net120
*552 net121
*553 net122
*554 net123
*555 net124
*556 net125
*557 net126
*558 net127
*559 net128
*560 net129
*561 net130
*562 net131
*563 net132
*564 net133
*565 net134
*566 net135
*567 net136
*568 net137
*569 net138
*570 net139
*571 net140
*572 net141
*573 net142
*574 net143
*575 net144
*576 net145
*577 net146
*578 net147
*579 net148
*580 net149
*581 net150
*582 net151
*583 net152
*584 net153
*585 net154
*586 net155
*587 net156
*588 net157
*589 net158
*590 net159
*591 net160
*592 net161
*593 net162
*594 net163
*595 net164
*596 net165
*597 net166
*598 net167
*599 net168
*600 net169
*601 net170
*602 net171
*603 net172
*604 net173
*605 net174
*606 net175
*607 net176
*608 net177
*609 net178
*610 net179
*611 net180
*612 net181
*613 net182
*614 net183
*615 net184
*616 net185
*617 net186
*618 net187
*619 net188
*620 net189
*621 net19
*622 net190
*623 net191
*624 net192
*625 net193
*626 net194
*627 net195
*628 net196
*629 net197
*630 net198
*631 net199
*632 net2
*633 net20
*634 net200
*635 net201
*636 net202
*637 net203
*638 net204
*639 net205
*640 net206
*641 net207
*642 net208
*643 net209
*644 net21
*645 net210
*646 net211
*647 net212
*648 net213
*649 net214
*650 net215
*651 net216
*652 net217
*653 net218
*654 net219
*655 net22
*656 net220
*657 net221
*658 net222
*659 net223
*660 net224
*661 net225
*662 net226
*663 net227
*664 net228
*665 net229
*666 net23
*667 net230
*668 net231
*669 net232
*670 net233
*671 net234
*672 net235
*673 net236
*674 net237
*675 net238
*676 net239
*677 net24
*678 net240
*679 net241
*680 net242
*681 net243
*682 net244
*683 net245
*684 net246
*685 net247
*686 net248
*687 net249
*688 net25
*689 net250
*690 net251
*691 net252
*692 net253
*693 net254
*694 net255
*695 net256
*696 net257
*697 net258
*698 net259
*699 net26
*700 net260
*701 net261
*702 net262
*703 net263
*704 net264
*705 net265
*706 net266
*707 net267
*708 net268
*709 net269
*710 net27
*711 net270
*712 net271
*713 net272
*714 net273
*715 net274
*716 net275
*717 net276
*718 net277
*719 net278
*720 net279
*721 net28
*722 net280
*723 net281
*724 net282
*725 net283
*726 net284
*727 net285
*728 net286
*729 net287
*730 net288
*731 net289
*732 net29
*733 net290
*734 net291
*735 net292
*736 net293
*737 net294
*738 net295
*739 net296
*740 net297
*741 net298
*742 net299
*743 net3
*744 net30
*745 net300
*746 net301
*747 net302
*748 net303
*749 net304
*750 net305
*751 net306
*752 net307
*753 net308
*754 net309
*755 net31
*756 net310
*757 net311
*758 net312
*759 net313
*760 net314
*761 net315
*762 net316
*763 net317
*764 net318
*765 net319
*766 net32
*767 net320
*768 net321
*769 net322
*770 net33
*771 net34
*772 net35
*773 net36
*774 net37
*775 net38
*776 net39
*777 net4
*778 net40
*779 net41
*780 net42
*781 net43
*782 net44
*783 net45
*784 net46
*785 net47
*786 net48
*787 net49
*788 net5
*789 net50
*790 net51
*791 net52
*792 net53
*793 net54
*794 net55
*795 net56
*796 net57
*797 net58
*798 net59
*799 net6
*800 net60
*801 net61
*802 net62
*803 net63
*804 net64
*805 net65
*806 net66
*807 net67
*808 net68
*809 net69
*810 net7
*811 net70
*812 net71
*813 net72
*814 net73
*815 net74
*816 net75
*817 net76
*818 net77
*819 net78
*820 net79
*821 net8
*822 net80
*823 net81
*824 net82
*825 net83
*826 net84
*827 net85
*828 net86
*829 net87
*830 net88
*831 net89
*832 net9
*833 net90
*834 net91
*835 net92
*836 net93
*837 net94
*838 net95
*839 net96
*840 net97
*841 net98
*842 net99
*843 vga_spi_rom\.byte_alt
*844 vga_spi_rom\.data_buffer\[0\]
*845 vga_spi_rom\.data_buffer\[100\]
*846 vga_spi_rom\.data_buffer\[101\]
*847 vga_spi_rom\.data_buffer\[102\]
*848 vga_spi_rom\.data_buffer\[103\]
*849 vga_spi_rom\.data_buffer\[104\]
*850 vga_spi_rom\.data_buffer\[105\]
*851 vga_spi_rom\.data_buffer\[106\]
*852 vga_spi_rom\.data_buffer\[107\]
*853 vga_spi_rom\.data_buffer\[108\]
*854 vga_spi_rom\.data_buffer\[109\]
*855 vga_spi_rom\.data_buffer\[10\]
*856 vga_spi_rom\.data_buffer\[110\]
*857 vga_spi_rom\.data_buffer\[111\]
*858 vga_spi_rom\.data_buffer\[112\]
*859 vga_spi_rom\.data_buffer\[113\]
*860 vga_spi_rom\.data_buffer\[114\]
*861 vga_spi_rom\.data_buffer\[115\]
*862 vga_spi_rom\.data_buffer\[116\]
*863 vga_spi_rom\.data_buffer\[117\]
*864 vga_spi_rom\.data_buffer\[118\]
*865 vga_spi_rom\.data_buffer\[119\]
*866 vga_spi_rom\.data_buffer\[11\]
*867 vga_spi_rom\.data_buffer\[12\]
*868 vga_spi_rom\.data_buffer\[13\]
*869 vga_spi_rom\.data_buffer\[14\]
*870 vga_spi_rom\.data_buffer\[15\]
*871 vga_spi_rom\.data_buffer\[16\]
*872 vga_spi_rom\.data_buffer\[17\]
*873 vga_spi_rom\.data_buffer\[18\]
*874 vga_spi_rom\.data_buffer\[19\]
*875 vga_spi_rom\.data_buffer\[1\]
*876 vga_spi_rom\.data_buffer\[20\]
*877 vga_spi_rom\.data_buffer\[21\]
*878 vga_spi_rom\.data_buffer\[22\]
*879 vga_spi_rom\.data_buffer\[23\]
*880 vga_spi_rom\.data_buffer\[24\]
*881 vga_spi_rom\.data_buffer\[25\]
*882 vga_spi_rom\.data_buffer\[26\]
*883 vga_spi_rom\.data_buffer\[27\]
*884 vga_spi_rom\.data_buffer\[28\]
*885 vga_spi_rom\.data_buffer\[29\]
*886 vga_spi_rom\.data_buffer\[2\]
*887 vga_spi_rom\.data_buffer\[30\]
*888 vga_spi_rom\.data_buffer\[31\]
*889 vga_spi_rom\.data_buffer\[32\]
*890 vga_spi_rom\.data_buffer\[33\]
*891 vga_spi_rom\.data_buffer\[34\]
*892 vga_spi_rom\.data_buffer\[35\]
*893 vga_spi_rom\.data_buffer\[36\]
*894 vga_spi_rom\.data_buffer\[37\]
*895 vga_spi_rom\.data_buffer\[38\]
*896 vga_spi_rom\.data_buffer\[39\]
*897 vga_spi_rom\.data_buffer\[3\]
*898 vga_spi_rom\.data_buffer\[40\]
*899 vga_spi_rom\.data_buffer\[41\]
*900 vga_spi_rom\.data_buffer\[42\]
*901 vga_spi_rom\.data_buffer\[43\]
*902 vga_spi_rom\.data_buffer\[44\]
*903 vga_spi_rom\.data_buffer\[45\]
*904 vga_spi_rom\.data_buffer\[46\]
*905 vga_spi_rom\.data_buffer\[47\]
*906 vga_spi_rom\.data_buffer\[48\]
*907 vga_spi_rom\.data_buffer\[49\]
*908 vga_spi_rom\.data_buffer\[4\]
*909 vga_spi_rom\.data_buffer\[50\]
*910 vga_spi_rom\.data_buffer\[51\]
*911 vga_spi_rom\.data_buffer\[52\]
*912 vga_spi_rom\.data_buffer\[53\]
*913 vga_spi_rom\.data_buffer\[54\]
*914 vga_spi_rom\.data_buffer\[55\]
*915 vga_spi_rom\.data_buffer\[56\]
*916 vga_spi_rom\.data_buffer\[57\]
*917 vga_spi_rom\.data_buffer\[58\]
*918 vga_spi_rom\.data_buffer\[59\]
*919 vga_spi_rom\.data_buffer\[5\]
*920 vga_spi_rom\.data_buffer\[60\]
*921 vga_spi_rom\.data_buffer\[61\]
*922 vga_spi_rom\.data_buffer\[62\]
*923 vga_spi_rom\.data_buffer\[63\]
*924 vga_spi_rom\.data_buffer\[64\]
*925 vga_spi_rom\.data_buffer\[65\]
*926 vga_spi_rom\.data_buffer\[66\]
*927 vga_spi_rom\.data_buffer\[67\]
*928 vga_spi_rom\.data_buffer\[68\]
*929 vga_spi_rom\.data_buffer\[69\]
*930 vga_spi_rom\.data_buffer\[6\]
*931 vga_spi_rom\.data_buffer\[70\]
*932 vga_spi_rom\.data_buffer\[71\]
*933 vga_spi_rom\.data_buffer\[72\]
*934 vga_spi_rom\.data_buffer\[73\]
*935 vga_spi_rom\.data_buffer\[74\]
*936 vga_spi_rom\.data_buffer\[75\]
*937 vga_spi_rom\.data_buffer\[76\]
*938 vga_spi_rom\.data_buffer\[77\]
*939 vga_spi_rom\.data_buffer\[78\]
*940 vga_spi_rom\.data_buffer\[79\]
*941 vga_spi_rom\.data_buffer\[7\]
*942 vga_spi_rom\.data_buffer\[80\]
*943 vga_spi_rom\.data_buffer\[81\]
*944 vga_spi_rom\.data_buffer\[82\]
*945 vga_spi_rom\.data_buffer\[83\]
*946 vga_spi_rom\.data_buffer\[84\]
*947 vga_spi_rom\.data_buffer\[85\]
*948 vga_spi_rom\.data_buffer\[86\]
*949 vga_spi_rom\.data_buffer\[87\]
*950 vga_spi_rom\.data_buffer\[88\]
*951 vga_spi_rom\.data_buffer\[89\]
*952 vga_spi_rom\.data_buffer\[8\]
*953 vga_spi_rom\.data_buffer\[90\]
*954 vga_spi_rom\.data_buffer\[91\]
*955 vga_spi_rom\.data_buffer\[92\]
*956 vga_spi_rom\.data_buffer\[93\]
*957 vga_spi_rom\.data_buffer\[94\]
*958 vga_spi_rom\.data_buffer\[95\]
*959 vga_spi_rom\.data_buffer\[96\]
*960 vga_spi_rom\.data_buffer\[97\]
*961 vga_spi_rom\.data_buffer\[98\]
*962 vga_spi_rom\.data_buffer\[99\]
*963 vga_spi_rom\.data_buffer\[9\]
*964 vga_spi_rom\.hpos\[0\]
*965 vga_spi_rom\.hpos\[1\]
*966 vga_spi_rom\.hpos\[2\]
*967 vga_spi_rom\.hpos\[3\]
*968 vga_spi_rom\.hpos\[4\]
*969 vga_spi_rom\.hpos\[5\]
*970 vga_spi_rom\.hpos\[6\]
*971 vga_spi_rom\.hpos\[7\]
*972 vga_spi_rom\.hpos\[8\]
*973 vga_spi_rom\.hpos\[9\]
*974 vga_spi_rom\.hsync
*975 vga_spi_rom\.hsync_n
*976 vga_spi_rom\.source_direct
*977 vga_spi_rom\.spi_cs
*978 vga_spi_rom\.spi_mosi
*979 vga_spi_rom\.vga_sync\.vpos\[0\]
*980 vga_spi_rom\.vga_sync\.vpos\[1\]
*981 vga_spi_rom\.vga_sync\.vpos\[3\]
*982 vga_spi_rom\.vga_sync\.vpos\[4\]
*983 vga_spi_rom\.vga_sync\.vpos\[5\]
*984 vga_spi_rom\.vga_sync\.vpos\[6\]
*985 vga_spi_rom\.vga_sync\.vpos\[7\]
*986 vga_spi_rom\.vga_sync\.vpos\[8\]
*987 vga_spi_rom\.vga_sync\.vpos\[9\]
*988 vga_spi_rom\.vga_sync\.vsync
*989 vga_spi_rom\.vsync_n
*990 FILLER_0_0_109
*991 FILLER_0_0_113
*992 FILLER_0_0_137
*993 FILLER_0_0_15
*994 FILLER_0_0_167
*995 FILLER_0_0_169
*996 FILLER_0_0_181
*997 FILLER_0_0_193
*998 FILLER_0_0_197
*999 FILLER_0_0_225
*1000 FILLER_0_0_242
*1001 FILLER_0_0_250
*1002 FILLER_0_0_253
*1003 FILLER_0_0_265
*1004 FILLER_0_0_27
*1005 FILLER_0_0_277
*1006 FILLER_0_0_281
*1007 FILLER_0_0_29
*1008 FILLER_0_0_293
*1009 FILLER_0_0_3
*1010 FILLER_0_0_305
*1011 FILLER_0_0_309
*1012 FILLER_0_0_321
*1013 FILLER_0_0_333
*1014 FILLER_0_0_337
*1015 FILLER_0_0_349
*1016 FILLER_0_0_41
*1017 FILLER_0_0_53
*1018 FILLER_0_0_57
*1019 FILLER_0_0_69
*1020 FILLER_0_0_81
*1021 FILLER_0_0_85
*1022 FILLER_0_0_97
*1023 FILLER_0_10_115
*1024 FILLER_0_10_141
*1025 FILLER_0_10_15
*1026 FILLER_0_10_189
*1027 FILLER_0_10_195
*1028 FILLER_0_10_197
*1029 FILLER_0_10_206
*1030 FILLER_0_10_21
*1031 FILLER_0_10_251
*1032 FILLER_0_10_278
*1033 FILLER_0_10_290
*1034 FILLER_0_10_3
*1035 FILLER_0_10_302
*1036 FILLER_0_10_309
*1037 FILLER_0_10_321
*1038 FILLER_0_10_333
*1039 FILLER_0_10_345
*1040 FILLER_0_10_66
*1041 FILLER_0_10_83
*1042 FILLER_0_10_85
*1043 FILLER_0_11_113
*1044 FILLER_0_11_15
*1045 FILLER_0_11_165
*1046 FILLER_0_11_169
*1047 FILLER_0_11_174
*1048 FILLER_0_11_191
*1049 FILLER_0_11_221
*1050 FILLER_0_11_225
*1051 FILLER_0_11_242
*1052 FILLER_0_11_261
*1053 FILLER_0_11_27
*1054 FILLER_0_11_281
*1055 FILLER_0_11_293
*1056 FILLER_0_11_3
*1057 FILLER_0_11_305
*1058 FILLER_0_11_31
*1059 FILLER_0_11_317
*1060 FILLER_0_11_329
*1061 FILLER_0_11_335
*1062 FILLER_0_11_337
*1063 FILLER_0_11_349
*1064 FILLER_0_11_35
*1065 FILLER_0_11_39
*1066 FILLER_0_11_57
*1067 FILLER_0_11_89
*1068 FILLER_0_12_105
*1069 FILLER_0_12_15
*1070 FILLER_0_12_172
*1071 FILLER_0_12_194
*1072 FILLER_0_12_213
*1073 FILLER_0_12_23
*1074 FILLER_0_12_233
*1075 FILLER_0_12_261
*1076 FILLER_0_12_279
*1077 FILLER_0_12_291
*1078 FILLER_0_12_3
*1079 FILLER_0_12_303
*1080 FILLER_0_12_307
*1081 FILLER_0_12_309
*1082 FILLER_0_12_321
*1083 FILLER_0_12_333
*1084 FILLER_0_12_345
*1085 FILLER_0_12_45
*1086 FILLER_0_12_69
*1087 FILLER_0_12_79
*1088 FILLER_0_13_105
*1089 FILLER_0_13_113
*1090 FILLER_0_13_15
*1091 FILLER_0_13_185
*1092 FILLER_0_13_248
*1093 FILLER_0_13_27
*1094 FILLER_0_13_276
*1095 FILLER_0_13_281
*1096 FILLER_0_13_293
*1097 FILLER_0_13_3
*1098 FILLER_0_13_305
*1099 FILLER_0_13_317
*1100 FILLER_0_13_329
*1101 FILLER_0_13_335
*1102 FILLER_0_13_337
*1103 FILLER_0_13_349
*1104 FILLER_0_13_39
*1105 FILLER_0_13_69
*1106 FILLER_0_14_141
*1107 FILLER_0_14_15
*1108 FILLER_0_14_176
*1109 FILLER_0_14_187
*1110 FILLER_0_14_195
*1111 FILLER_0_14_200
*1112 FILLER_0_14_253
*1113 FILLER_0_14_257
*1114 FILLER_0_14_27
*1115 FILLER_0_14_278
*1116 FILLER_0_14_29
*1117 FILLER_0_14_290
*1118 FILLER_0_14_3
*1119 FILLER_0_14_302
*1120 FILLER_0_14_309
*1121 FILLER_0_14_321
*1122 FILLER_0_14_333
*1123 FILLER_0_14_345
*1124 FILLER_0_14_44
*1125 FILLER_0_14_82
*1126 FILLER_0_15_129
*1127 FILLER_0_15_149
*1128 FILLER_0_15_15
*1129 FILLER_0_15_166
*1130 FILLER_0_15_169
*1131 FILLER_0_15_190
*1132 FILLER_0_15_221
*1133 FILLER_0_15_225
*1134 FILLER_0_15_254
*1135 FILLER_0_15_27
*1136 FILLER_0_15_281
*1137 FILLER_0_15_293
*1138 FILLER_0_15_3
*1139 FILLER_0_15_305
*1140 FILLER_0_15_317
*1141 FILLER_0_15_329
*1142 FILLER_0_15_335
*1143 FILLER_0_15_337
*1144 FILLER_0_15_349
*1145 FILLER_0_15_39
*1146 FILLER_0_15_51
*1147 FILLER_0_15_55
*1148 FILLER_0_15_57
*1149 FILLER_0_15_61
*1150 FILLER_0_16_111
*1151 FILLER_0_16_15
*1152 FILLER_0_16_168
*1153 FILLER_0_16_208
*1154 FILLER_0_16_225
*1155 FILLER_0_16_234
*1156 FILLER_0_16_256
*1157 FILLER_0_16_27
*1158 FILLER_0_16_283
*1159 FILLER_0_16_29
*1160 FILLER_0_16_295
*1161 FILLER_0_16_3
*1162 FILLER_0_16_307
*1163 FILLER_0_16_309
*1164 FILLER_0_16_321
*1165 FILLER_0_16_333
*1166 FILLER_0_16_345
*1167 FILLER_0_16_41
*1168 FILLER_0_16_53
*1169 FILLER_0_16_61
*1170 FILLER_0_16_74
*1171 FILLER_0_16_80
*1172 FILLER_0_16_85
*1173 FILLER_0_17_113
*1174 FILLER_0_17_15
*1175 FILLER_0_17_157
*1176 FILLER_0_17_167
*1177 FILLER_0_17_169
*1178 FILLER_0_17_189
*1179 FILLER_0_17_223
*1180 FILLER_0_17_234
*1181 FILLER_0_17_255
*1182 FILLER_0_17_259
*1183 FILLER_0_17_269
*1184 FILLER_0_17_27
*1185 FILLER_0_17_279
*1186 FILLER_0_17_281
*1187 FILLER_0_17_291
*1188 FILLER_0_17_3
*1189 FILLER_0_17_303
*1190 FILLER_0_17_315
*1191 FILLER_0_17_327
*1192 FILLER_0_17_335
*1193 FILLER_0_17_337
*1194 FILLER_0_17_349
*1195 FILLER_0_17_39
*1196 FILLER_0_17_51
*1197 FILLER_0_17_55
*1198 FILLER_0_17_57
*1199 FILLER_0_17_69
*1200 FILLER_0_17_73
*1201 FILLER_0_17_77
*1202 FILLER_0_17_81
*1203 FILLER_0_17_94
*1204 FILLER_0_18_138
*1205 FILLER_0_18_15
*1206 FILLER_0_18_222
*1207 FILLER_0_18_228
*1208 FILLER_0_18_245
*1209 FILLER_0_18_27
*1210 FILLER_0_18_29
*1211 FILLER_0_18_3
*1212 FILLER_0_18_321
*1213 FILLER_0_18_333
*1214 FILLER_0_18_345
*1215 FILLER_0_18_41
*1216 FILLER_0_18_53
*1217 FILLER_0_18_85
*1218 FILLER_0_19_150
*1219 FILLER_0_19_172
*1220 FILLER_0_19_183
*1221 FILLER_0_19_195
*1222 FILLER_0_19_205
*1223 FILLER_0_19_228
*1224 FILLER_0_19_23
*1225 FILLER_0_19_251
*1226 FILLER_0_19_326
*1227 FILLER_0_19_334
*1228 FILLER_0_19_337
*1229 FILLER_0_19_349
*1230 FILLER_0_19_36
*1231 FILLER_0_19_44
*1232 FILLER_0_19_57
*1233 FILLER_0_19_69
*1234 FILLER_0_19_73
*1235 FILLER_0_19_84
*1236 FILLER_0_19_94
*1237 FILLER_0_1_105
*1238 FILLER_0_1_111
*1239 FILLER_0_1_113
*1240 FILLER_0_1_137
*1241 FILLER_0_1_15
*1242 FILLER_0_1_177
*1243 FILLER_0_1_189
*1244 FILLER_0_1_201
*1245 FILLER_0_1_221
*1246 FILLER_0_1_225
*1247 FILLER_0_1_240
*1248 FILLER_0_1_249
*1249 FILLER_0_1_261
*1250 FILLER_0_1_27
*1251 FILLER_0_1_273
*1252 FILLER_0_1_279
*1253 FILLER_0_1_281
*1254 FILLER_0_1_293
*1255 FILLER_0_1_3
*1256 FILLER_0_1_305
*1257 FILLER_0_1_317
*1258 FILLER_0_1_329
*1259 FILLER_0_1_335
*1260 FILLER_0_1_337
*1261 FILLER_0_1_349
*1262 FILLER_0_1_39
*1263 FILLER_0_1_51
*1264 FILLER_0_1_55
*1265 FILLER_0_1_57
*1266 FILLER_0_1_69
*1267 FILLER_0_1_81
*1268 FILLER_0_1_93
*1269 FILLER_0_20_122
*1270 FILLER_0_20_149
*1271 FILLER_0_20_15
*1272 FILLER_0_20_175
*1273 FILLER_0_20_192
*1274 FILLER_0_20_21
*1275 FILLER_0_20_216
*1276 FILLER_0_20_227
*1277 FILLER_0_20_240
*1278 FILLER_0_20_250
*1279 FILLER_0_20_261
*1280 FILLER_0_20_3
*1281 FILLER_0_20_307
*1282 FILLER_0_20_321
*1283 FILLER_0_20_333
*1284 FILLER_0_20_345
*1285 FILLER_0_20_61
*1286 FILLER_0_20_82
*1287 FILLER_0_20_93
*1288 FILLER_0_21_111
*1289 FILLER_0_21_146
*1290 FILLER_0_21_15
*1291 FILLER_0_21_153
*1292 FILLER_0_21_160
*1293 FILLER_0_21_183
*1294 FILLER_0_21_193
*1295 FILLER_0_21_207
*1296 FILLER_0_21_211
*1297 FILLER_0_21_220
*1298 FILLER_0_21_225
*1299 FILLER_0_21_258
*1300 FILLER_0_21_27
*1301 FILLER_0_21_274
*1302 FILLER_0_21_289
*1303 FILLER_0_21_3
*1304 FILLER_0_21_308
*1305 FILLER_0_21_31
*1306 FILLER_0_21_326
*1307 FILLER_0_21_334
*1308 FILLER_0_21_337
*1309 FILLER_0_21_349
*1310 FILLER_0_21_57
*1311 FILLER_0_21_69
*1312 FILLER_0_22_104
*1313 FILLER_0_22_149
*1314 FILLER_0_22_15
*1315 FILLER_0_22_169
*1316 FILLER_0_22_191
*1317 FILLER_0_22_195
*1318 FILLER_0_22_197
*1319 FILLER_0_22_214
*1320 FILLER_0_22_23
*1321 FILLER_0_22_245
*1322 FILLER_0_22_251
*1323 FILLER_0_22_253
*1324 FILLER_0_22_287
*1325 FILLER_0_22_3
*1326 FILLER_0_22_305
*1327 FILLER_0_22_329
*1328 FILLER_0_22_341
*1329 FILLER_0_22_349
*1330 FILLER_0_22_45
*1331 FILLER_0_22_49
*1332 FILLER_0_22_63
*1333 FILLER_0_22_83
*1334 FILLER_0_22_85
*1335 FILLER_0_23_103
*1336 FILLER_0_23_130
*1337 FILLER_0_23_148
*1338 FILLER_0_23_15
*1339 FILLER_0_23_167
*1340 FILLER_0_23_210
*1341 FILLER_0_23_234
*1342 FILLER_0_23_240
*1343 FILLER_0_23_3
*1344 FILLER_0_23_306
*1345 FILLER_0_23_332
*1346 FILLER_0_23_337
*1347 FILLER_0_23_349
*1348 FILLER_0_23_35
*1349 FILLER_0_23_39
*1350 FILLER_0_23_77
*1351 FILLER_0_24_132
*1352 FILLER_0_24_141
*1353 FILLER_0_24_147
*1354 FILLER_0_24_15
*1355 FILLER_0_24_19
*1356 FILLER_0_24_191
*1357 FILLER_0_24_195
*1358 FILLER_0_24_206
*1359 FILLER_0_24_224
*1360 FILLER_0_24_251
*1361 FILLER_0_24_259
*1362 FILLER_0_24_280
*1363 FILLER_0_24_3
*1364 FILLER_0_24_312
*1365 FILLER_0_24_324
*1366 FILLER_0_24_336
*1367 FILLER_0_24_348
*1368 FILLER_0_24_38
*1369 FILLER_0_24_82
*1370 FILLER_0_24_94
*1371 FILLER_0_25_11
*1372 FILLER_0_25_110
*1373 FILLER_0_25_130
*1374 FILLER_0_25_147
*1375 FILLER_0_25_151
*1376 FILLER_0_25_186
*1377 FILLER_0_25_197
*1378 FILLER_0_25_205
*1379 FILLER_0_25_222
*1380 FILLER_0_25_225
*1381 FILLER_0_25_256
*1382 FILLER_0_25_28
*1383 FILLER_0_25_281
*1384 FILLER_0_25_3
*1385 FILLER_0_25_323
*1386 FILLER_0_25_335
*1387 FILLER_0_25_337
*1388 FILLER_0_25_34
*1389 FILLER_0_25_349
*1390 FILLER_0_25_51
*1391 FILLER_0_25_76
*1392 FILLER_0_26_11
*1393 FILLER_0_26_120
*1394 FILLER_0_26_139
*1395 FILLER_0_26_144
*1396 FILLER_0_26_16
*1397 FILLER_0_26_166
*1398 FILLER_0_26_195
*1399 FILLER_0_26_197
*1400 FILLER_0_26_202
*1401 FILLER_0_26_223
*1402 FILLER_0_26_261
*1403 FILLER_0_26_285
*1404 FILLER_0_26_295
*1405 FILLER_0_26_3
*1406 FILLER_0_26_306
*1407 FILLER_0_26_333
*1408 FILLER_0_26_345
*1409 FILLER_0_26_37
*1410 FILLER_0_26_45
*1411 FILLER_0_26_93
*1412 FILLER_0_27_130
*1413 FILLER_0_27_138
*1414 FILLER_0_27_15
*1415 FILLER_0_27_155
*1416 FILLER_0_27_162
*1417 FILLER_0_27_177
*1418 FILLER_0_27_186
*1419 FILLER_0_27_219
*1420 FILLER_0_27_223
*1421 FILLER_0_27_225
*1422 FILLER_0_27_230
*1423 FILLER_0_27_242
*1424 FILLER_0_27_27
*1425 FILLER_0_27_275
*1426 FILLER_0_27_279
*1427 FILLER_0_27_3
*1428 FILLER_0_27_300
*1429 FILLER_0_27_321
*1430 FILLER_0_27_33
*1431 FILLER_0_27_333
*1432 FILLER_0_27_337
*1433 FILLER_0_27_349
*1434 FILLER_0_27_37
*1435 FILLER_0_27_73
*1436 FILLER_0_28_111
*1437 FILLER_0_28_129
*1438 FILLER_0_28_138
*1439 FILLER_0_28_141
*1440 FILLER_0_28_15
*1441 FILLER_0_28_153
*1442 FILLER_0_28_165
*1443 FILLER_0_28_175
*1444 FILLER_0_28_191
*1445 FILLER_0_28_195
*1446 FILLER_0_28_197
*1447 FILLER_0_28_209
*1448 FILLER_0_28_228
*1449 FILLER_0_28_23
*1450 FILLER_0_28_245
*1451 FILLER_0_28_253
*1452 FILLER_0_28_258
*1453 FILLER_0_28_292
*1454 FILLER_0_28_3
*1455 FILLER_0_28_304
*1456 FILLER_0_28_309
*1457 FILLER_0_28_321
*1458 FILLER_0_28_333
*1459 FILLER_0_28_345
*1460 FILLER_0_28_62
*1461 FILLER_0_28_88
*1462 FILLER_0_29_110
*1463 FILLER_0_29_133
*1464 FILLER_0_29_137
*1465 FILLER_0_29_15
*1466 FILLER_0_29_183
*1467 FILLER_0_29_201
*1468 FILLER_0_29_213
*1469 FILLER_0_29_23
*1470 FILLER_0_29_230
*1471 FILLER_0_29_253
*1472 FILLER_0_29_275
*1473 FILLER_0_29_279
*1474 FILLER_0_29_297
*1475 FILLER_0_29_3
*1476 FILLER_0_29_309
*1477 FILLER_0_29_323
*1478 FILLER_0_29_335
*1479 FILLER_0_29_337
*1480 FILLER_0_29_349
*1481 FILLER_0_29_82
*1482 FILLER_0_2_109
*1483 FILLER_0_2_135
*1484 FILLER_0_2_139
*1485 FILLER_0_2_141
*1486 FILLER_0_2_15
*1487 FILLER_0_2_188
*1488 FILLER_0_2_192
*1489 FILLER_0_2_197
*1490 FILLER_0_2_201
*1491 FILLER_0_2_244
*1492 FILLER_0_2_253
*1493 FILLER_0_2_265
*1494 FILLER_0_2_27
*1495 FILLER_0_2_277
*1496 FILLER_0_2_289
*1497 FILLER_0_2_29
*1498 FILLER_0_2_3
*1499 FILLER_0_2_301
*1500 FILLER_0_2_307
*1501 FILLER_0_2_309
*1502 FILLER_0_2_321
*1503 FILLER_0_2_333
*1504 FILLER_0_2_345
*1505 FILLER_0_2_41
*1506 FILLER_0_2_53
*1507 FILLER_0_2_65
*1508 FILLER_0_2_77
*1509 FILLER_0_2_83
*1510 FILLER_0_2_85
*1511 FILLER_0_2_97
*1512 FILLER_0_30_110
*1513 FILLER_0_30_122
*1514 FILLER_0_30_136
*1515 FILLER_0_30_141
*1516 FILLER_0_30_15
*1517 FILLER_0_30_153
*1518 FILLER_0_30_162
*1519 FILLER_0_30_174
*1520 FILLER_0_30_183
*1521 FILLER_0_30_197
*1522 FILLER_0_30_204
*1523 FILLER_0_30_208
*1524 FILLER_0_30_229
*1525 FILLER_0_30_233
*1526 FILLER_0_30_251
*1527 FILLER_0_30_253
*1528 FILLER_0_30_266
*1529 FILLER_0_30_27
*1530 FILLER_0_30_277
*1531 FILLER_0_30_284
*1532 FILLER_0_30_29
*1533 FILLER_0_30_296
*1534 FILLER_0_30_3
*1535 FILLER_0_30_304
*1536 FILLER_0_30_325
*1537 FILLER_0_30_333
*1538 FILLER_0_30_50
*1539 FILLER_0_30_54
*1540 FILLER_0_30_82
*1541 FILLER_0_31_102
*1542 FILLER_0_31_110
*1543 FILLER_0_31_116
*1544 FILLER_0_31_132
*1545 FILLER_0_31_15
*1546 FILLER_0_31_150
*1547 FILLER_0_31_175
*1548 FILLER_0_31_185
*1549 FILLER_0_31_189
*1550 FILLER_0_31_199
*1551 FILLER_0_31_209
*1552 FILLER_0_31_220
*1553 FILLER_0_31_230
*1554 FILLER_0_31_238
*1555 FILLER_0_31_250
*1556 FILLER_0_31_258
*1557 FILLER_0_31_269
*1558 FILLER_0_31_27
*1559 FILLER_0_31_275
*1560 FILLER_0_31_281
*1561 FILLER_0_31_299
*1562 FILLER_0_31_3
*1563 FILLER_0_31_329
*1564 FILLER_0_31_335
*1565 FILLER_0_31_340
*1566 FILLER_0_31_348
*1567 FILLER_0_31_37
*1568 FILLER_0_31_41
*1569 FILLER_0_31_55
*1570 FILLER_0_31_57
*1571 FILLER_0_31_61
*1572 FILLER_0_31_65
*1573 FILLER_0_31_76
*1574 FILLER_0_31_88
*1575 FILLER_0_31_94
*1576 FILLER_0_32_102
*1577 FILLER_0_32_132
*1578 FILLER_0_32_141
*1579 FILLER_0_32_15
*1580 FILLER_0_32_153
*1581 FILLER_0_32_162
*1582 FILLER_0_32_174
*1583 FILLER_0_32_191
*1584 FILLER_0_32_195
*1585 FILLER_0_32_197
*1586 FILLER_0_32_205
*1587 FILLER_0_32_212
*1588 FILLER_0_32_229
*1589 FILLER_0_32_237
*1590 FILLER_0_32_250
*1591 FILLER_0_32_27
*1592 FILLER_0_32_274
*1593 FILLER_0_32_280
*1594 FILLER_0_32_289
*1595 FILLER_0_32_29
*1596 FILLER_0_32_3
*1597 FILLER_0_32_307
*1598 FILLER_0_32_309
*1599 FILLER_0_32_313
*1600 FILLER_0_32_317
*1601 FILLER_0_32_325
*1602 FILLER_0_32_338
*1603 FILLER_0_32_350
*1604 FILLER_0_32_55
*1605 FILLER_0_32_93
*1606 FILLER_0_33_107
*1607 FILLER_0_33_111
*1608 FILLER_0_33_116
*1609 FILLER_0_33_15
*1610 FILLER_0_33_153
*1611 FILLER_0_33_164
*1612 FILLER_0_33_169
*1613 FILLER_0_33_175
*1614 FILLER_0_33_185
*1615 FILLER_0_33_189
*1616 FILLER_0_33_193
*1617 FILLER_0_33_205
*1618 FILLER_0_33_212
*1619 FILLER_0_33_216
*1620 FILLER_0_33_242
*1621 FILLER_0_33_269
*1622 FILLER_0_33_27
*1623 FILLER_0_33_281
*1624 FILLER_0_33_293
*1625 FILLER_0_33_3
*1626 FILLER_0_33_320
*1627 FILLER_0_33_331
*1628 FILLER_0_33_335
*1629 FILLER_0_33_337
*1630 FILLER_0_33_349
*1631 FILLER_0_33_49
*1632 FILLER_0_33_55
*1633 FILLER_0_33_57
*1634 FILLER_0_34_139
*1635 FILLER_0_34_146
*1636 FILLER_0_34_15
*1637 FILLER_0_34_156