*SPEF "ieee 1481-1999"
*DESIGN "tt_um_algofoogle_vga_spi_rom"
*DATE "11:11:11 Fri 11 11, 1111"
*VENDOR "OpenRCX"
*PROGRAM "Parallel Extraction"
*VERSION "1.0"
*DESIGN_FLOW "NAME_SCOPE LOCAL" "PIN_CAP NONE"
*DIVIDER /
*DELIMITER :
*BUS_DELIMITER []
*T_UNIT 1 NS
*C_UNIT 1 PF
*R_UNIT 1 OHM
*L_UNIT 1 HENRY

*NAME_MAP
*3 clk
*4 ena
*5 rst_n
*6 ui_in[0]
*7 ui_in[1]
*8 ui_in[2]
*9 ui_in[3]
*10 ui_in[4]
*11 ui_in[5]
*12 ui_in[6]
*13 ui_in[7]
*14 uio_in[0]
*15 uio_in[1]
*16 uio_in[2]
*17 uio_in[3]
*18 uio_in[4]
*19 uio_in[5]
*20 uio_in[6]
*21 uio_in[7]
*22 net10
*23 net11
*24 net12
*25 net13
*26 net14
*27 net15
*28 net16
*29 net17
*30 uio_out[0]
*31 uio_out[1]
*32 uio_out[2]
*33 uio_out[3]
*34 uio_out[4]
*35 uio_out[5]
*36 uio_out[6]
*37 uio_out[7]
*38 uo_out[0]
*39 uo_out[1]
*40 uo_out[2]
*41 uo_out[3]
*42 uo_out[4]
*43 uo_out[5]
*44 uo_out[6]
*45 uo_out[7]
*46 _0136_
*47 _0137_
*48 _0138_
*49 _0139_
*50 _0140_
*51 _0141_
*52 _0142_
*53 _0143_
*54 _0144_
*55 _0145_
*56 _0146_
*57 _0147_
*58 _0148_
*59 _0149_
*60 _0150_
*61 _0151_
*62 _0152_
*63 _0153_
*64 _0154_
*65 _0155_
*66 _0156_
*67 _0157_
*68 _0158_
*69 _0159_
*70 _0160_
*71 _0161_
*72 _0162_
*73 _0163_
*74 _0164_
*75 _0165_
*76 _0166_
*77 _0167_
*78 _0168_
*79 _0169_
*80 _0170_
*81 _0171_
*82 _0172_
*83 _0173_
*84 _0174_
*85 _0175_
*86 _0176_
*87 _0177_
*88 _0178_
*89 _0179_
*90 _0180_
*91 _0181_
*92 _0182_
*93 _0183_
*94 _0184_
*95 _0185_
*96 _0186_
*97 _0187_
*98 _0188_
*99 _0189_
*100 _0190_
*101 _0191_
*102 _0192_
*103 _0193_
*104 _0194_
*105 _0195_
*106 _0196_
*107 _0197_
*108 _0198_
*109 _0199_
*110 _0200_
*111 _0201_
*112 _0202_
*113 _0203_
*114 _0204_
*115 _0205_
*116 _0206_
*117 _0207_
*118 _0208_
*119 _0209_
*120 _0210_
*121 _0211_
*122 _0212_
*123 _0213_
*124 _0214_
*125 _0215_
*126 _0216_
*127 _0217_
*128 _0218_
*129 _0219_
*130 _0220_
*131 _0221_
*132 _0222_
*133 _0223_
*134 _0224_
*135 _0225_
*136 _0226_
*137 _0227_
*138 _0228_
*139 _0229_
*140 _0230_
*141 _0231_
*142 _0232_
*143 _0233_
*144 _0234_
*145 _0235_
*146 _0236_
*147 _0237_
*148 _0238_
*149 _0239_
*150 _0240_
*151 _0241_
*152 _0242_
*153 _0243_
*154 _0244_
*155 _0245_
*156 _0246_
*157 _0247_
*158 _0248_
*159 _0249_
*160 _0250_
*161 _0251_
*162 _0252_
*163 _0253_
*164 _0254_
*165 _0255_
*166 _0256_
*167 _0257_
*168 _0258_
*169 _0259_
*170 _0260_
*171 _0261_
*172 _0262_
*173 _0263_
*174 _0264_
*175 _0265_
*176 _0266_
*177 _0267_
*178 _0268_
*179 _0269_
*180 _0270_
*181 _0271_
*182 _0272_
*183 _0273_
*184 _0274_
*185 _0275_
*186 _0276_
*187 _0277_
*188 _0278_
*189 _0279_
*190 _0280_
*191 _0281_
*192 _0282_
*193 _0283_
*194 _0284_
*195 _0285_
*196 _0286_
*197 _0287_
*198 _0288_
*199 _0289_
*200 _0290_
*201 _0291_
*202 _0292_
*203 _0293_
*204 _0294_
*205 _0295_
*206 _0296_
*207 _0297_
*208 _0298_
*209 _0299_
*210 _0300_
*211 _0301_
*212 _0302_
*213 _0303_
*214 _0304_
*215 _0305_
*216 _0306_
*217 _0307_
*218 _0308_
*219 _0309_
*220 _0310_
*221 _0311_
*222 _0312_
*223 _0313_
*224 _0314_
*225 _0315_
*226 _0316_
*227 _0317_
*228 _0318_
*229 _0319_
*230 _0320_
*231 _0321_
*232 _0322_
*233 _0323_
*234 _0324_
*235 _0325_
*236 _0326_
*237 _0327_
*238 _0328_
*239 _0329_
*240 _0330_
*241 _0331_
*242 _0332_
*243 _0333_
*244 _0334_
*245 _0335_
*246 _0336_
*247 _0337_
*248 _0338_
*249 _0339_
*250 _0340_
*251 _0341_
*252 _0342_
*253 _0343_
*254 _0344_
*255 _0345_
*256 _0346_
*257 _0347_
*258 _0348_
*259 _0349_
*260 _0350_
*261 _0351_
*262 _0352_
*263 _0353_
*264 _0354_
*265 _0355_
*266 _0356_
*267 _0357_
*268 _0358_
*269 _0359_
*270 _0360_
*271 _0361_
*272 _0362_
*273 _0363_
*274 _0364_
*275 _0365_
*276 _0366_
*277 _0367_
*278 _0368_
*279 _0369_
*280 _0370_
*281 _0371_
*282 _0372_
*283 _0373_
*284 _0374_
*285 _0375_
*286 _0376_
*287 _0377_
*288 _0378_
*289 _0379_
*290 _0380_
*291 _0381_
*292 _0382_
*293 _0383_
*294 _0384_
*295 _0385_
*296 _0386_
*297 _0387_
*298 _0388_
*299 _0389_
*300 _0390_
*301 _0391_
*302 _0392_
*303 _0393_
*304 _0394_
*305 _0395_
*306 _0396_
*307 _0397_
*308 _0398_
*309 _0399_
*310 _0400_
*311 _0401_
*312 _0402_
*313 _0403_
*314 _0404_
*315 _0405_
*316 _0406_
*317 _0407_
*318 _0408_
*319 _0409_
*320 _0410_
*321 _0411_
*322 _0412_
*323 _0413_
*324 _0414_
*325 _0415_
*326 _0416_
*327 _0417_
*328 _0418_
*329 _0419_
*330 _0420_
*331 _0421_
*332 _0422_
*333 _0423_
*334 _0424_
*335 _0425_
*336 _0426_
*337 _0427_
*338 _0428_
*339 _0429_
*340 _0430_
*341 _0431_
*342 _0432_
*343 _0433_
*344 _0434_
*345 _0435_
*346 _0436_
*347 _0437_
*348 _0438_
*349 _0439_
*350 _0440_
*351 _0441_
*352 _0442_
*353 _0443_
*354 _0444_
*355 _0445_
*356 _0446_
*357 _0447_
*358 _0448_
*359 _0449_
*360 _0450_
*361 _0451_
*362 _0452_
*363 _0453_
*364 _0454_
*365 _0455_
*366 _0456_
*367 _0457_
*368 _0458_
*369 _0459_
*370 _0460_
*371 _0461_
*372 _0462_
*373 _0463_
*374 _0464_
*375 _0465_
*376 _0466_
*377 _0467_
*378 _0468_
*379 _0469_
*380 _0470_
*381 _0471_
*382 _0472_
*383 _0473_
*384 _0474_
*385 _0475_
*386 _0476_
*387 _0477_
*388 _0478_
*389 _0479_
*390 _0480_
*391 _0481_
*392 _0482_
*393 _0483_
*394 _0484_
*395 _0485_
*396 _0486_
*397 _0487_
*398 _0488_
*399 _0489_
*400 _0490_
*401 _0491_
*402 _0492_
*403 _0493_
*404 _0494_
*405 _0495_
*406 _0496_
*407 _0497_
*408 _0498_
*409 _0499_
*410 _0500_
*411 _0501_
*412 _0502_
*413 _0503_
*414 _0504_
*415 _0505_
*416 _0506_
*417 _0507_
*418 _0508_
*419 _0509_
*420 _0510_
*421 _0511_
*422 _0512_
*423 _0513_
*424 _0514_
*425 _0515_
*426 _0516_
*427 _0517_
*428 _0518_
*429 _0519_
*430 _0520_
*431 _0521_
*432 _0522_
*433 _0523_
*434 _0524_
*435 _0525_
*436 _0526_
*437 _0527_
*438 _0528_
*439 _0529_
*440 _0530_
*441 _0531_
*442 _0532_
*443 _0533_
*444 _0534_
*445 _0535_
*446 _0536_
*447 _0537_
*448 _0538_
*449 _0539_
*450 _0540_
*451 _0541_
*452 _0542_
*453 _0543_
*454 _0544_
*455 _0545_
*456 _0546_
*457 _0547_
*458 _0548_
*459 _0549_
*460 _0550_
*461 _0551_
*462 _0552_
*463 _0553_
*464 _0554_
*465 _0555_
*466 _0556_
*467 _0557_
*468 _0558_
*469 _0559_
*470 _0560_
*471 _0561_
*472 _0562_
*473 _0563_
*474 _0564_
*475 _0565_
*476 _0566_
*477 _0567_
*478 _0568_
*479 _0569_
*480 _0570_
*481 _0571_
*482 _0572_
*483 _0573_
*484 _0574_
*485 _0575_
*486 _0576_
*487 _0577_
*488 _0578_
*489 _0579_
*490 _0580_
*491 _0581_
*492 _0582_
*493 _0583_
*494 _0584_
*495 _0585_
*496 _0586_
*497 _0587_
*498 _0588_
*499 _0589_
*500 _0590_
*501 _0591_
*502 _0592_
*503 _0593_
*504 _0594_
*505 _0595_
*506 _0596_
*507 _0597_
*508 _0598_
*509 _0599_
*510 _0600_
*511 _0601_
*512 _0602_
*513 _0603_
*514 _0604_
*515 _0605_
*516 _0606_
*517 _0607_
*518 _0608_
*519 _0609_
*520 _0610_
*521 _0611_
*522 _0612_
*523 _0613_
*524 _0614_
*525 _0615_
*526 _0616_
*527 _0617_
*528 _0618_
*529 _0619_
*530 _0620_
*531 _0621_
*532 _0622_
*533 _0623_
*534 _0624_
*535 _0625_
*536 _0626_
*537 _0627_
*538 _0628_
*539 _0629_
*540 _0630_
*541 _0631_
*542 _0632_
*543 _0633_
*544 _0634_
*545 _0635_
*546 _0636_
*547 _0637_
*548 _0638_
*549 _0639_
*550 _0640_
*551 _0641_
*552 _0642_
*553 _0643_
*554 _0644_
*555 _0645_
*556 _0646_
*557 _0647_
*558 _0648_
*559 _0649_
*560 _0650_
*561 _0651_
*562 _0652_
*563 _0653_
*564 _0654_
*565 _0655_
*566 _0656_
*567 _0657_
*568 _0658_
*569 _0659_
*570 _0660_
*571 _0661_
*572 _0662_
*573 _0663_
*574 _0664_
*575 _0665_
*576 _0666_
*577 _0667_
*578 _0668_
*579 _0669_
*580 _0670_
*581 _0671_
*582 _0672_
*583 _0673_
*584 _0674_
*585 _0675_
*586 _0676_
*587 _0677_
*588 _0678_
*589 _0679_
*590 _0680_
*591 _0681_
*592 _0682_
*593 _0683_
*594 _0684_
*595 _0685_
*596 _0686_
*597 _0687_
*598 _0688_
*599 _0689_
*600 _0690_
*601 _0691_
*602 _0692_
*603 _0693_
*604 _0694_
*605 _0695_
*606 _0696_
*607 _0697_
*608 _0698_
*609 _0699_
*610 _0700_
*611 _0701_
*612 _0702_
*613 _0703_
*614 _0704_
*615 _0705_
*616 _0706_
*617 _0707_
*618 _0708_
*619 _0709_
*620 _0710_
*621 _0711_
*622 _0712_
*623 _0713_
*624 _0714_
*625 _0715_
*626 _0716_
*627 _0717_
*628 _0718_
*629 _0719_
*630 _0720_
*631 _0721_
*632 clknet_0__0294_
*633 clknet_0__0295_
*634 clknet_0__0376_
*635 clknet_0__0377_
*636 clknet_0__0378_
*637 clknet_0__0379_
*638 clknet_0__0380_
*639 clknet_0__0381_
*640 clknet_0__0715_
*641 clknet_0__0716_
*642 clknet_0__0717_
*643 clknet_0__0718_
*644 clknet_0__0719_
*645 clknet_0__0720_
*646 clknet_0__0721_
*647 clknet_0_clk
*648 clknet_1_0__leaf__0294_
*649 clknet_1_0__leaf__0295_
*650 clknet_1_0__leaf__0376_
*651 clknet_1_0__leaf__0377_
*652 clknet_1_0__leaf__0378_
*653 clknet_1_0__leaf__0379_
*654 clknet_1_0__leaf__0380_
*655 clknet_1_0__leaf__0381_
*656 clknet_1_0__leaf__0715_
*657 clknet_1_0__leaf__0716_
*658 clknet_1_0__leaf__0717_
*659 clknet_1_0__leaf__0718_
*660 clknet_1_0__leaf__0719_
*661 clknet_1_0__leaf__0720_
*662 clknet_1_0__leaf__0721_
*663 clknet_1_0__leaf_clk
*664 clknet_1_1__leaf__0294_
*665 clknet_1_1__leaf__0295_
*666 clknet_1_1__leaf__0376_
*667 clknet_1_1__leaf__0377_
*668 clknet_1_1__leaf__0378_
*669 clknet_1_1__leaf__0379_
*670 clknet_1_1__leaf__0380_
*671 clknet_1_1__leaf__0381_
*672 clknet_1_1__leaf__0715_
*673 clknet_1_1__leaf__0716_
*674 clknet_1_1__leaf__0717_
*675 clknet_1_1__leaf__0718_
*676 clknet_1_1__leaf__0719_
*677 clknet_1_1__leaf__0720_
*678 clknet_1_1__leaf__0721_
*679 clknet_1_1__leaf_clk
*680 net1
*681 net100
*682 net101
*683 net102
*684 net103
*685 net104
*686 net105
*687 net106
*688 net107
*689 net108
*690 net109
*691 net110
*692 net111
*693 net112
*694 net113
*695 net114
*696 net115
*697 net116
*698 net117
*699 net118
*700 net119
*701 net120
*702 net121
*703 net122
*704 net123
*705 net124
*706 net125
*707 net126
*708 net127
*709 net128
*710 net129
*711 net130
*712 net131
*713 net132
*714 net133
*715 net134
*716 net135
*717 net136
*718 net137
*719 net138
*720 net139
*721 net140
*722 net141
*723 net142
*724 net143
*725 net144
*726 net145
*727 net146
*728 net147
*729 net148
*730 net149
*731 net150
*732 net151
*733 net152
*734 net153
*735 net154
*736 net155
*737 net156
*738 net157
*739 net158
*740 net159
*741 net160
*742 net161
*743 net162
*744 net163
*745 net164
*746 net165
*747 net166
*748 net167
*749 net168
*750 net169
*751 net170
*752 net171
*753 net172
*754 net173
*755 net174
*756 net175
*757 net176
*758 net177
*759 net178
*760 net179
*761 net18
*762 net180
*763 net181
*764 net182
*765 net183
*766 net184
*767 net185
*768 net186
*769 net187
*770 net188
*771 net189
*772 net19
*773 net190
*774 net191
*775 net192
*776 net193
*777 net194
*778 net195
*779 net196
*780 net197
*781 net198
*782 net199
*783 net2
*784 net20
*785 net200
*786 net201
*787 net202
*788 net203
*789 net204
*790 net205
*791 net206
*792 net207
*793 net208
*794 net209
*795 net21
*796 net210
*797 net211
*798 net212
*799 net213
*800 net214
*801 net215
*802 net216
*803 net217
*804 net218
*805 net219
*806 net22
*807 net220
*808 net221
*809 net222
*810 net223
*811 net224
*812 net225
*813 net226
*814 net227
*815 net228
*816 net229
*817 net23
*818 net230
*819 net231
*820 net232
*821 net233
*822 net234
*823 net235
*824 net236
*825 net237
*826 net238
*827 net239
*828 net24
*829 net240
*830 net241
*831 net242
*832 net243
*833 net244
*834 net245
*835 net246
*836 net247
*837 net248
*838 net249
*839 net25
*840 net250
*841 net251
*842 net252
*843 net253
*844 net254
*845 net255
*846 net256
*847 net257
*848 net258
*849 net259
*850 net26
*851 net260
*852 net261
*853 net262
*854 net263
*855 net264
*856 net265
*857 net266
*858 net267
*859 net268
*860 net269
*861 net27
*862 net270
*863 net271
*864 net272
*865 net273
*866 net274
*867 net275
*868 net276
*869 net277
*870 net278
*871 net279
*872 net28
*873 net280
*874 net281
*875 net282
*876 net283
*877 net284
*878 net285
*879 net286
*880 net287
*881 net288
*882 net289
*883 net29
*884 net290
*885 net291
*886 net292
*887 net293
*888 net294
*889 net295
*890 net296
*891 net297
*892 net298
*893 net299
*894 net3
*895 net30
*896 net300
*897 net301
*898 net302
*899 net303
*900 net304
*901 net305
*902 net306
*903 net307
*904 net308
*905 net309
*906 net31
*907 net310
*908 net311
*909 net312
*910 net313
*911 net314
*912 net315
*913 net316
*914 net317
*915 net318
*916 net319
*917 net32
*918 net320
*919 net321
*920 net322
*921 net323
*922 net324
*923 net325
*924 net326
*925 net327
*926 net328
*927 net329
*928 net33
*929 net330
*930 net331
*931 net332
*932 net333
*933 net334
*934 net335
*935 net336
*936 net337
*937 net338
*938 net339
*939 net34
*940 net340
*941 net341
*942 net342
*943 net343
*944 net344
*945 net345
*946 net346
*947 net347
*948 net348
*949 net349
*950 net35
*951 net350
*952 net351
*953 net352
*954 net353
*955 net354
*956 net355
*957 net356
*958 net357
*959 net358
*960 net359
*961 net36
*962 net360
*963 net37
*964 net38
*965 net39
*966 net4
*967 net40
*968 net41
*969 net42
*970 net43
*971 net44
*972 net45
*973 net46
*974 net47
*975 net48
*976 net49
*977 net5
*978 net50
*979 net51
*980 net52
*981 net53
*982 net54
*983 net55
*984 net56
*985 net57
*986 net58
*987 net59
*988 net6
*989 net60
*990 net61
*991 net62
*992 net63
*993 net64
*994 net65
*995 net66
*996 net67
*997 net68
*998 net69
*999 net7
*1000 net70
*1001 net71
*1002 net72
*1003 net73
*1004 net74
*1005 net75
*1006 net76
*1007 net77
*1008 net78
*1009 net79
*1010 net8
*1011 net80
*1012 net81
*1013 net82
*1014 net83
*1015 net84
*1016 net85
*1017 net86
*1018 net87
*1019 net88
*1020 net89
*1021 net9
*1022 net90
*1023 net91
*1024 net92
*1025 net93
*1026 net94
*1027 net95
*1028 net96
*1029 net97
*1030 net98
*1031 net99
*1032 vga_spi_rom\.data_buffer\[0\]
*1033 vga_spi_rom\.data_buffer\[100\]
*1034 vga_spi_rom\.data_buffer\[101\]
*1035 vga_spi_rom\.data_buffer\[102\]
*1036 vga_spi_rom\.data_buffer\[103\]
*1037 vga_spi_rom\.data_buffer\[104\]
*1038 vga_spi_rom\.data_buffer\[105\]
*1039 vga_spi_rom\.data_buffer\[106\]
*1040 vga_spi_rom\.data_buffer\[107\]
*1041 vga_spi_rom\.data_buffer\[108\]
*1042 vga_spi_rom\.data_buffer\[109\]
*1043 vga_spi_rom\.data_buffer\[10\]
*1044 vga_spi_rom\.data_buffer\[110\]
*1045 vga_spi_rom\.data_buffer\[111\]
*1046 vga_spi_rom\.data_buffer\[112\]
*1047 vga_spi_rom\.data_buffer\[113\]
*1048 vga_spi_rom\.data_buffer\[114\]
*1049 vga_spi_rom\.data_buffer\[115\]
*1050 vga_spi_rom\.data_buffer\[116\]
*1051 vga_spi_rom\.data_buffer\[117\]
*1052 vga_spi_rom\.data_buffer\[118\]
*1053 vga_spi_rom\.data_buffer\[119\]
*1054 vga_spi_rom\.data_buffer\[11\]
*1055 vga_spi_rom\.data_buffer\[120\]
*1056 vga_spi_rom\.data_buffer\[121\]
*1057 vga_spi_rom\.data_buffer\[122\]
*1058 vga_spi_rom\.data_buffer\[123\]
*1059 vga_spi_rom\.data_buffer\[124\]
*1060 vga_spi_rom\.data_buffer\[125\]
*1061 vga_spi_rom\.data_buffer\[126\]
*1062 vga_spi_rom\.data_buffer\[127\]
*1063 vga_spi_rom\.data_buffer\[128\]
*1064 vga_spi_rom\.data_buffer\[129\]
*1065 vga_spi_rom\.data_buffer\[12\]
*1066 vga_spi_rom\.data_buffer\[130\]
*1067 vga_spi_rom\.data_buffer\[131\]
*1068 vga_spi_rom\.data_buffer\[132\]
*1069 vga_spi_rom\.data_buffer\[133\]
*1070 vga_spi_rom\.data_buffer\[134\]
*1071 vga_spi_rom\.data_buffer\[135\]
*1072 vga_spi_rom\.data_buffer\[13\]
*1073 vga_spi_rom\.data_buffer\[14\]
*1074 vga_spi_rom\.data_buffer\[15\]
*1075 vga_spi_rom\.data_buffer\[16\]
*1076 vga_spi_rom\.data_buffer\[17\]
*1077 vga_spi_rom\.data_buffer\[18\]
*1078 vga_spi_rom\.data_buffer\[19\]
*1079 vga_spi_rom\.data_buffer\[1\]
*1080 vga_spi_rom\.data_buffer\[20\]
*1081 vga_spi_rom\.data_buffer\[21\]
*1082 vga_spi_rom\.data_buffer\[22\]
*1083 vga_spi_rom\.data_buffer\[23\]
*1084 vga_spi_rom\.data_buffer\[24\]
*1085 vga_spi_rom\.data_buffer\[25\]
*1086 vga_spi_rom\.data_buffer\[26\]
*1087 vga_spi_rom\.data_buffer\[27\]
*1088 vga_spi_rom\.data_buffer\[28\]
*1089 vga_spi_rom\.data_buffer\[29\]
*1090 vga_spi_rom\.data_buffer\[2\]
*1091 vga_spi_rom\.data_buffer\[30\]
*1092 vga_spi_rom\.data_buffer\[31\]
*1093 vga_spi_rom\.data_buffer\[32\]
*1094 vga_spi_rom\.data_buffer\[33\]
*1095 vga_spi_rom\.data_buffer\[34\]
*1096 vga_spi_rom\.data_buffer\[35\]
*1097 vga_spi_rom\.data_buffer\[36\]
*1098 vga_spi_rom\.data_buffer\[37\]
*1099 vga_spi_rom\.data_buffer\[38\]
*1100 vga_spi_rom\.data_buffer\[39\]
*1101 vga_spi_rom\.data_buffer\[3\]
*1102 vga_spi_rom\.data_buffer\[40\]
*1103 vga_spi_rom\.data_buffer\[41\]
*1104 vga_spi_rom\.data_buffer\[42\]
*1105 vga_spi_rom\.data_buffer\[43\]
*1106 vga_spi_rom\.data_buffer\[44\]
*1107 vga_spi_rom\.data_buffer\[45\]
*1108 vga_spi_rom\.data_buffer\[46\]
*1109 vga_spi_rom\.data_buffer\[47\]
*1110 vga_spi_rom\.data_buffer\[48\]
*1111 vga_spi_rom\.data_buffer\[49\]
*1112 vga_spi_rom\.data_buffer\[4\]
*1113 vga_spi_rom\.data_buffer\[50\]
*1114 vga_spi_rom\.data_buffer\[51\]
*1115 vga_spi_rom\.data_buffer\[52\]
*1116 vga_spi_rom\.data_buffer\[53\]
*1117 vga_spi_rom\.data_buffer\[54\]
*1118 vga_spi_rom\.data_buffer\[55\]
*1119 vga_spi_rom\.data_buffer\[56\]
*1120 vga_spi_rom\.data_buffer\[57\]
*1121 vga_spi_rom\.data_buffer\[58\]
*1122 vga_spi_rom\.data_buffer\[59\]
*1123 vga_spi_rom\.data_buffer\[5\]
*1124 vga_spi_rom\.data_buffer\[60\]
*1125 vga_spi_rom\.data_buffer\[61\]
*1126 vga_spi_rom\.data_buffer\[62\]
*1127 vga_spi_rom\.data_buffer\[63\]
*1128 vga_spi_rom\.data_buffer\[64\]
*1129 vga_spi_rom\.data_buffer\[65\]
*1130 vga_spi_rom\.data_buffer\[66\]
*1131 vga_spi_rom\.data_buffer\[67\]
*1132 vga_spi_rom\.data_buffer\[68\]
*1133 vga_spi_rom\.data_buffer\[69\]
*1134 vga_spi_rom\.data_buffer\[6\]
*1135 vga_spi_rom\.data_buffer\[70\]
*1136 vga_spi_rom\.data_buffer\[71\]
*1137 vga_spi_rom\.data_buffer\[72\]
*1138 vga_spi_rom\.data_buffer\[73\]
*1139 vga_spi_rom\.data_buffer\[74\]
*1140 vga_spi_rom\.data_buffer\[75\]
*1141 vga_spi_rom\.data_buffer\[76\]
*1142 vga_spi_rom\.data_buffer\[77\]
*1143 vga_spi_rom\.data_buffer\[78\]
*1144 vga_spi_rom\.data_buffer\[79\]
*1145 vga_spi_rom\.data_buffer\[7\]
*1146 vga_spi_rom\.data_buffer\[80\]
*1147 vga_spi_rom\.data_buffer\[81\]
*1148 vga_spi_rom\.data_buffer\[82\]
*1149 vga_spi_rom\.data_buffer\[83\]
*1150 vga_spi_rom\.data_buffer\[84\]
*1151 vga_spi_rom\.data_buffer\[85\]
*1152 vga_spi_rom\.data_buffer\[86\]
*1153 vga_spi_rom\.data_buffer\[87\]
*1154 vga_spi_rom\.data_buffer\[88\]
*1155 vga_spi_rom\.data_buffer\[89\]
*1156 vga_spi_rom\.data_buffer\[8\]
*1157 vga_spi_rom\.data_buffer\[90\]
*1158 vga_spi_rom\.data_buffer\[91\]
*1159 vga_spi_rom\.data_buffer\[92\]
*1160 vga_spi_rom\.data_buffer\[93\]
*1161 vga_spi_rom\.data_buffer\[94\]
*1162 vga_spi_rom\.data_buffer\[95\]
*1163 vga_spi_rom\.data_buffer\[96\]
*1164 vga_spi_rom\.data_buffer\[97\]
*1165 vga_spi_rom\.data_buffer\[98\]
*1166 vga_spi_rom\.data_buffer\[99\]
*1167 vga_spi_rom\.data_buffer\[9\]
*1168 vga_spi_rom\.data_index\[3\]
*1169 vga_spi_rom\.hpos\[0\]
*1170 vga_spi_rom\.hpos\[1\]
*1171 vga_spi_rom\.hpos\[2\]
*1172 vga_spi_rom\.hpos\[4\]
*1173 vga_spi_rom\.hpos\[5\]
*1174 vga_spi_rom\.hpos\[6\]
*1175 vga_spi_rom\.hpos\[7\]
*1176 vga_spi_rom\.hpos\[8\]
*1177 vga_spi_rom\.hpos\[9\]
*1178 vga_spi_rom\.hsync
*1179 vga_spi_rom\.spi_mosi
*1180 vga_spi_rom\.vga_sync\.o_vpos\[0\]
*1181 vga_spi_rom\.vga_sync\.o_vpos\[1\]
*1182 vga_spi_rom\.vga_sync\.o_vpos\[2\]
*1183 vga_spi_rom\.vga_sync\.o_vpos\[3\]
*1184 vga_spi_rom\.vga_sync\.o_vpos\[4\]
*1185 vga_spi_rom\.vga_sync\.o_vpos\[5\]
*1186 vga_spi_rom\.vga_sync\.o_vpos\[6\]
*1187 vga_spi_rom\.vga_sync\.o_vpos\[7\]
*1188 vga_spi_rom\.vga_sync\.o_vpos\[8\]
*1189 vga_spi_rom\.vga_sync\.o_vpos\[9\]
*1190 vga_spi_rom\.vga_sync\.o_vsync
*1191 vga_spi_rom\.vga_sync\.vsync
*1192 FILLER_0_0_109
*1193 FILLER_0_0_113
*1194 FILLER_0_0_125
*1195 FILLER_0_0_137
*1196 FILLER_0_0_141
*1197 FILLER_0_0_15
*1198 FILLER_0_0_153
*1199 FILLER_0_0_165
*1200 FILLER_0_0_169
*1201 FILLER_0_0_181
*1202 FILLER_0_0_193
*1203 FILLER_0_0_197
*1204 FILLER_0_0_209
*1205 FILLER_0_0_221
*1206 FILLER_0_0_225
*1207 FILLER_0_0_237
*1208 FILLER_0_0_249
*1209 FILLER_0_0_253
*1210 FILLER_0_0_265
*1211 FILLER_0_0_27
*1212 FILLER_0_0_277
*1213 FILLER_0_0_281
*1214 FILLER_0_0_29
*1215 FILLER_0_0_293
*1216 FILLER_0_0_3
*1217 FILLER_0_0_305
*1218 FILLER_0_0_309
*1219 FILLER_0_0_321
*1220 FILLER_0_0_333
*1221 FILLER_0_0_337
*1222 FILLER_0_0_349
*1223 FILLER_0_0_41
*1224 FILLER_0_0_53
*1225 FILLER_0_0_57
*1226 FILLER_0_0_69
*1227 FILLER_0_0_81
*1228 FILLER_0_0_85
*1229 FILLER_0_0_97
*1230 FILLER_0_10_107
*1231 FILLER_0_10_141
*1232 FILLER_0_10_148
*1233 FILLER_0_10_164
*1234 FILLER_0_10_168
*1235 FILLER_0_10_172
*1236 FILLER_0_10_192
*1237 FILLER_0_10_205
*1238 FILLER_0_10_224
*1239 FILLER_0_10_242
*1240 FILLER_0_10_269
*1241 FILLER_0_10_27
*1242 FILLER_0_10_290
*1243 FILLER_0_10_3
*1244 FILLER_0_10_309
*1245 FILLER_0_10_345
*1246 FILLER_0_10_45
*1247 FILLER_0_10_77
*1248 FILLER_0_10_9
*1249 FILLER_0_11_116
*1250 FILLER_0_11_125
*1251 FILLER_0_11_135
*1252 FILLER_0_11_141
*1253 FILLER_0_11_154
*1254 FILLER_0_11_185
*1255 FILLER_0_11_221
*1256 FILLER_0_11_234
*1257 FILLER_0_11_277
*1258 FILLER_0_11_287
*1259 FILLER_0_11_295
*1260 FILLER_0_11_3
*1261 FILLER_0_11_345
*1262 FILLER_0_11_54
*1263 FILLER_0_11_7
*1264 FILLER_0_11_90
*1265 FILLER_0_12_109
*1266 FILLER_0_12_144
*1267 FILLER_0_12_156
*1268 FILLER_0_12_182
*1269 FILLER_0_12_194
*1270 FILLER_0_12_209
*1271 FILLER_0_12_215
*1272 FILLER_0_12_219
*1273 FILLER_0_12_223
*1274 FILLER_0_12_235
*1275 FILLER_0_12_249
*1276 FILLER_0_12_253
*1277 FILLER_0_12_293
*1278 FILLER_0_12_3
*1279 FILLER_0_12_326
*1280 FILLER_0_12_35
*1281 FILLER_0_12_45
*1282 FILLER_0_12_67
*1283 FILLER_0_12_79
*1284 FILLER_0_13_110
*1285 FILLER_0_13_117
*1286 FILLER_0_13_166
*1287 FILLER_0_13_169
*1288 FILLER_0_13_174
*1289 FILLER_0_13_212
*1290 FILLER_0_13_249
*1291 FILLER_0_13_281
*1292 FILLER_0_13_3
*1293 FILLER_0_13_307
*1294 FILLER_0_13_312
*1295 FILLER_0_13_346
*1296 FILLER_0_13_350
*1297 FILLER_0_13_52
*1298 FILLER_0_13_60
*1299 FILLER_0_13_73
*1300 FILLER_0_13_91
*1301 FILLER_0_13_99
*1302 FILLER_0_14_102
*1303 FILLER_0_14_141
*1304 FILLER_0_14_193
*1305 FILLER_0_14_197
*1306 FILLER_0_14_23
*1307 FILLER_0_14_250
*1308 FILLER_0_14_256
*1309 FILLER_0_14_299
*1310 FILLER_0_14_350
*1311 FILLER_0_14_37
*1312 FILLER_0_14_78
*1313 FILLER_0_14_98
*1314 FILLER_0_15_108
*1315 FILLER_0_15_166
*1316 FILLER_0_15_234
*1317 FILLER_0_15_255
*1318 FILLER_0_15_279
*1319 FILLER_0_15_289
*1320 FILLER_0_15_318
*1321 FILLER_0_15_34
*1322 FILLER_0_15_349
*1323 FILLER_0_15_52
*1324 FILLER_0_15_57
*1325 FILLER_0_15_69
*1326 FILLER_0_15_81
*1327 FILLER_0_15_96
*1328 FILLER_0_16_106
*1329 FILLER_0_16_117
*1330 FILLER_0_16_125
*1331 FILLER_0_16_13
*1332 FILLER_0_16_135
*1333 FILLER_0_16_139
*1334 FILLER_0_16_152
*1335 FILLER_0_16_162
*1336 FILLER_0_16_175
*1337 FILLER_0_16_19
*1338 FILLER_0_16_223
*1339 FILLER_0_16_235
*1340 FILLER_0_16_239
*1341 FILLER_0_16_243
*1342 FILLER_0_16_269
*1343 FILLER_0_16_29
*1344 FILLER_0_16_298
*1345 FILLER_0_16_3
*1346 FILLER_0_16_309
*1347 FILLER_0_16_331
*1348 FILLER_0_16_39
*1349 FILLER_0_16_74
*1350 FILLER_0_16_9
*1351 FILLER_0_17_106
*1352 FILLER_0_17_113
*1353 FILLER_0_17_12
*1354 FILLER_0_17_120
*1355 FILLER_0_17_130
*1356 FILLER_0_17_143
*1357 FILLER_0_17_181
*1358 FILLER_0_17_204
*1359 FILLER_0_17_234
*1360 FILLER_0_17_242
*1361 FILLER_0_17_284
*1362 FILLER_0_17_288
*1363 FILLER_0_17_295
*1364 FILLER_0_17_3
*1365 FILLER_0_17_307
*1366 FILLER_0_17_330
*1367 FILLER_0_17_335
*1368 FILLER_0_17_348
*1369 FILLER_0_17_52
*1370 FILLER_0_17_57
*1371 FILLER_0_17_69
*1372 FILLER_0_17_73
*1373 FILLER_0_17_99
*1374 FILLER_0_18_110
*1375 FILLER_0_18_130
*1376 FILLER_0_18_152
*1377 FILLER_0_18_195
*1378 FILLER_0_18_22
*1379 FILLER_0_18_221
*1380 FILLER_0_18_245
*1381 FILLER_0_18_250
*1382 FILLER_0_18_270
*1383 FILLER_0_18_29
*1384 FILLER_0_18_291
*1385 FILLER_0_18_309
*1386 FILLER_0_18_315
*1387 FILLER_0_18_325
*1388 FILLER_0_18_42
*1389 FILLER_0_18_55
*1390 FILLER_0_18_96
*1391 FILLER_0_19_104
*1392 FILLER_0_19_113
*1393 FILLER_0_19_119
*1394 FILLER_0_19_135
*1395 FILLER_0_19_147
*1396 FILLER_0_19_166
*1397 FILLER_0_19_169
*1398 FILLER_0_19_191
*1399 FILLER_0_19_213
*1400 FILLER_0_19_228
*1401 FILLER_0_19_268
*1402 FILLER_0_19_3
*1403 FILLER_0_19_300
*1404 FILLER_0_19_337
*1405 FILLER_0_19_35
*1406 FILLER_0_19_98
*1407 FILLER_0_1_105
*1408 FILLER_0_1_111
*1409 FILLER_0_1_113
*1410 FILLER_0_1_125
*1411 FILLER_0_1_137
*1412 FILLER_0_1_149
*1413 FILLER_0_1_15
*1414 FILLER_0_1_161
*1415 FILLER_0_1_167
*1416 FILLER_0_1_169
*1417 FILLER_0_1_181
*1418 FILLER_0_1_193
*1419 FILLER_0_1_205
*1420 FILLER_0_1_217
*1421 FILLER_0_1_223
*1422 FILLER_0_1_225
*1423 FILLER_0_1_237
*1424 FILLER_0_1_249
*1425 FILLER_0_1_261
*1426 FILLER_0_1_27
*1427 FILLER_0_1_273
*1428 FILLER_0_1_279
*1429 FILLER_0_1_281
*1430 FILLER_0_1_293
*1431 FILLER_0_1_3
*1432 FILLER_0_1_305
*1433 FILLER_0_1_317
*1434 FILLER_0_1_329
*1435 FILLER_0_1_335
*1436 FILLER_0_1_337
*1437 FILLER_0_1_349
*1438 FILLER_0_1_39
*1439 FILLER_0_1_51
*1440 FILLER_0_1_55
*1441 FILLER_0_1_57
*1442 FILLER_0_1_69
*1443 FILLER_0_1_81
*1444 FILLER_0_1_93
*1445 FILLER_0_20_137
*1446 FILLER_0_20_150
*1447 FILLER_0_20_171
*1448 FILLER_0_20_180
*1449 FILLER_0_20_193
*1450 FILLER_0_20_206
*1451 FILLER_0_20_22
*1452 FILLER_0_20_253
*1453 FILLER_0_20_270
*1454 FILLER_0_20_29
*1455 FILLER_0_20_291
*1456 FILLER_0_20_350
*1457 FILLER_0_20_74
*1458 FILLER_0_20_83
*1459 FILLER_0_20_91
*1460 FILLER_0_21_105
*1461 FILLER_0_21_111
*1462 FILLER_0_21_121
*1463 FILLER_0_21_125
*1464 FILLER_0_21_129
*1465 FILLER_0_21_149
*1466 FILLER_0_21_15
*1467 FILLER_0_21_157
*1468 FILLER_0_21_169
*1469 FILLER_0_21_177
*1470 FILLER_0_21_187
*1471 FILLER_0_21_195
*1472 FILLER_0_21_212
*1473 FILLER_0_21_244
*1474 FILLER_0_21_257
*1475 FILLER_0_21_261
*1476 FILLER_0_21_279
*1477 FILLER_0_21_281
*1478 FILLER_0_21_294
*1479 FILLER_0_21_3
*1480 FILLER_0_21_305
*1481 FILLER_0_21_311
*1482 FILLER_0_21_324
*1483 FILLER_0_21_335
*1484 FILLER_0_21_345
*1485 FILLER_0_21_44
*1486 FILLER_0_21_55
*1487 FILLER_0_21_76
*1488 FILLER_0_21_93
*1489 FILLER_0_22_105
*1490 FILLER_0_22_132
*1491 FILLER_0_22_155
*1492 FILLER_0_22_159
*1493 FILLER_0_22_169
*1494 FILLER_0_22_192
*1495 FILLER_0_22_24
*1496 FILLER_0_22_262
*1497 FILLER_0_22_296
*1498 FILLER_0_22_3
*1499 FILLER_0_22_348
*1500 FILLER_0_22_46
*1501 FILLER_0_22_55
*1502 FILLER_0_23_106
*1503 FILLER_0_23_113
*1504 FILLER_0_23_166
*1505 FILLER_0_23_169
*1506 FILLER_0_23_177
*1507 FILLER_0_23_186
*1508 FILLER_0_23_190
*1509 FILLER_0_23_197
*1510 FILLER_0_23_214
*1511 FILLER_0_23_222
*1512 FILLER_0_23_23
*1513 FILLER_0_23_231
*1514 FILLER_0_23_251
*1515 FILLER_0_23_273
*1516 FILLER_0_23_281
*1517 FILLER_0_23_33
*1518 FILLER_0_23_333
*1519 FILLER_0_23_337
*1520 FILLER_0_23_347
*1521 FILLER_0_23_55
*1522 FILLER_0_23_57
*1523 FILLER_0_23_83
*1524 FILLER_0_24_110
*1525 FILLER_0_24_141
*1526 FILLER_0_24_153
*1527 FILLER_0_24_173
*1528 FILLER_0_24_193
*1529 FILLER_0_24_204
*1530 FILLER_0_24_216
*1531 FILLER_0_24_229
*1532 FILLER_0_24_253
*1533 FILLER_0_24_26
*1534 FILLER_0_24_29
*1535 FILLER_0_24_298
*1536 FILLER_0_24_312
*1537 FILLER_0_24_323
*1538 FILLER_0_24_346
*1539 FILLER_0_24_350
*1540 FILLER_0_24_52
*1541 FILLER_0_24_82
*1542 FILLER_0_24_85
*1543 FILLER_0_25_110
*1544 FILLER_0_25_113
*1545 FILLER_0_25_130
*1546 FILLER_0_25_134
*1547 FILLER_0_25_151
*1548 FILLER_0_25_157
*1549 FILLER_0_25_167
*1550 FILLER_0_25_172
*1551 FILLER_0_25_185
*1552 FILLER_0_25_197
*1553 FILLER_0_25_205
*1554 FILLER_0_25_225
*1555 FILLER_0_25_243
*1556 FILLER_0_25_251
*1557 FILLER_0_25_264
*1558 FILLER_0_25_29
*1559 FILLER_0_25_3
*1560 FILLER_0_25_334
*1561 FILLER_0_25_346
*1562 FILLER_0_25_350
*1563 FILLER_0_25_55
*1564 FILLER_0_25_79
*1565 FILLER_0_26_136
*1566 FILLER_0_26_141
*1567 FILLER_0_26_149
*1568 FILLER_0_26_155
*1569 FILLER_0_26_163
*1570 FILLER_0_26_180
*1571 FILLER_0_26_188
*1572 FILLER_0_26_212
*1573 FILLER_0_26_216
*1574 FILLER_0_26_228
*1575 FILLER_0_26_248
*1576 FILLER_0_26_25
*1577 FILLER_0_26_29
*1578 FILLER_0_26_306
*1579 FILLER_0_26_315
*1580 FILLER_0_26_319
*1581 FILLER_0_26_326
*1582 FILLER_0_26_85
*1583 FILLER_0_27_111
*1584 FILLER_0_27_113
*1585 FILLER_0_27_126
*1586 FILLER_0_27_144
*1587 FILLER_0_27_151
*1588 FILLER_0_27_155
*1589 FILLER_0_27_163
*1590 FILLER_0_27_167
*1591 FILLER_0_27_169
*1592 FILLER_0_27_173
*1593 FILLER_0_27_177
*1594 FILLER_0_27_185
*1595 FILLER_0_27_196
*1596 FILLER_0_27_208
*1597 FILLER_0_27_221
*1598 FILLER_0_27_240
*1599 FILLER_0_27_262
*1600 FILLER_0_27_279
*1601 FILLER_0_27_334
*1602 FILLER_0_27_337
*1603 FILLER_0_27_350
*1604 FILLER_0_27_6
*1605 FILLER_0_27_65
*1606 FILLER_0_27_91
*1607 FILLER_0_27_98
*1608 FILLER_0_28_121
*1609 FILLER_0_28_129
*1610 FILLER_0_28_141
*1611 FILLER_0_28_177
*1612 FILLER_0_28_185
*1613 FILLER_0_28_191
*1614 FILLER_0_28_195
*1615 FILLER_0_28_205
*1616 FILLER_0_28_209
*1617 FILLER_0_28_217
*1618 FILLER_0_28_228
*1619 FILLER_0_28_236
*1620 FILLER_0_28_245
*1621 FILLER_0_28_251
*1622 FILLER_0_28_257
*1623 FILLER_0_28_269
*1624 FILLER_0_28_297
*1625 FILLER_0_28_307
*1626 FILLER_0_28_309
*1627 FILLER_0_28_313
*1628 FILLER_0_28_349
*1629 FILLER_0_29_108
*1630 FILLER_0_29_132
*1631 FILLER_0_29_162
*1632 FILLER_0_29_169
*1633 FILLER_0_29_177
*1634 FILLER_0_29_185
*1635 FILLER_0_29_191
*1636 FILLER_0_29_206
*1637 FILLER_0_29_218
*1638 FILLER_0_29_225
*1639 FILLER_0_29_23
*1640 FILLER_0_29_241
*1641 FILLER_0_29_284
*1642 FILLER_0_29_3
*1643 FILLER_0_29_301
*1644 FILLER_0_29_325
*1645 FILLER_0_29_44
*1646 FILLER_0_29_55
*1647 FILLER_0_29_77
*1648 FILLER_0_29_95
*1649 FILLER_0_2_109
*1650 FILLER_0_2_121
*1651 FILLER_0_2_133
*1652 FILLER_0_2_139
*1653 FILLER_0_2_141
*1654 FILLER_0_2_149
*1655 FILLER_0_2_15
*1656 FILLER_0_2_162
*1657 FILLER_0_2_174
*1658 FILLER_0_2_186
*1659 FILLER_0_2_195
*1660 FILLER_0_2_205
*1661 FILLER_0_2_217
*1662 FILLER_0_2_229
*1663 FILLER_0_2_241
*1664 FILLER_0_2_251
*1665 FILLER_0_2_253
*1666 FILLER_0_2_265
*1667 FILLER_0_2_27
*1668 FILLER_0_2_277
*1669 FILLER_0_2_289
*1670 FILLER_0_2_29
*1671 FILLER_0_2_3
*1672 FILLER_0_2_301
*1673 FILLER_0_2_307
*1674 FILLER_0_2_309
*1675 FILLER_0_2_321
*1676 FILLER_0_2_333
*1677 FILLER_0_2_345
*1678 FILLER_0_2_41
*1679 FILLER_0_2_53
*1680 FILLER_0_2_65
*1681 FILLER_0_2_77
*1682 FILLER_0_2_83
*1683 FILLER_0_2_85
*1684 FILLER_0_2_97
*1685 FILLER_0_30_112
*1686 FILLER_0_30_123
*1687 FILLER_0_30_135
*1688 FILLER_0_30_139
*1689 FILLER_0_30_146
*1690 FILLER_0_30_158
*1691 FILLER_0_30_166
*1692 FILLER_0_30_173
*1693 FILLER_0_30_184
*1694 FILLER_0_30_197
*1695 FILLER_0_30_209
*1696 FILLER_0_30_219