*SPEF "ieee 1481-1999"
*DESIGN "tt_um_algofoogle_vga_spi_rom"
*DATE "11:11:11 Fri 11 11, 1111"
*VENDOR "OpenRCX"
*PROGRAM "Parallel Extraction"
*VERSION "1.0"
*DESIGN_FLOW "NAME_SCOPE LOCAL" "PIN_CAP NONE"
*DIVIDER /
*DELIMITER :
*BUS_DELIMITER []
*T_UNIT 1 NS
*C_UNIT 1 PF
*R_UNIT 1 OHM
*L_UNIT 1 HENRY

*NAME_MAP
*3 clk
*4 ena
*5 rst_n
*6 ui_in[0]
*7 ui_in[1]
*8 ui_in[2]
*9 ui_in[3]
*10 ui_in[4]
*11 ui_in[5]
*12 ui_in[6]
*13 ui_in[7]
*14 uio_in[0]
*15 uio_in[1]
*16 uio_in[2]
*17 uio_in[3]
*18 uio_in[4]
*19 uio_in[5]
*20 uio_in[6]
*21 uio_in[7]
*22 net10
*23 net11
*24 net12
*25 net13
*26 net14
*27 net15
*28 net16
*29 net17
*30 uio_out[0]
*31 uio_out[1]
*32 uio_out[2]
*33 uio_out[3]
*34 uio_out[4]
*35 uio_out[5]
*36 uio_out[6]
*37 uio_out[7]
*38 uo_out[0]
*39 uo_out[1]
*40 uo_out[2]
*41 uo_out[3]
*42 uo_out[4]
*43 uo_out[5]
*44 uo_out[6]
*45 uo_out[7]
*46 _0128_
*47 _0129_
*48 _0130_
*49 _0131_
*50 _0132_
*51 _0133_
*52 _0134_
*53 _0135_
*54 _0136_
*55 _0137_
*56 _0138_
*57 _0139_
*58 _0140_
*59 _0141_
*60 _0142_
*61 _0143_
*62 _0144_
*63 _0145_
*64 _0146_
*65 _0147_
*66 _0148_
*67 _0149_
*68 _0150_
*69 _0151_
*70 _0152_
*71 _0153_
*72 _0154_
*73 _0155_
*74 _0156_
*75 _0157_
*76 _0158_
*77 _0159_
*78 _0160_
*79 _0161_
*80 _0162_
*81 _0163_
*82 _0164_
*83 _0165_
*84 _0166_
*85 _0167_
*86 _0168_
*87 _0169_
*88 _0170_
*89 _0171_
*90 _0172_
*91 _0173_
*92 _0174_
*93 _0175_
*94 _0176_
*95 _0177_
*96 _0178_
*97 _0179_
*98 _0180_
*99 _0181_
*100 _0182_
*101 _0183_
*102 _0184_
*103 _0185_
*104 _0186_
*105 _0187_
*106 _0188_
*107 _0189_
*108 _0190_
*109 _0191_
*110 _0192_
*111 _0193_
*112 _0194_
*113 _0195_
*114 _0196_
*115 _0197_
*116 _0198_
*117 _0199_
*118 _0200_
*119 _0201_
*120 _0202_
*121 _0203_
*122 _0204_
*123 _0205_
*124 _0206_
*125 _0207_
*126 _0208_
*127 _0209_
*128 _0210_
*129 _0211_
*130 _0212_
*131 _0213_
*132 _0214_
*133 _0215_
*134 _0216_
*135 _0217_
*136 _0218_
*137 _0219_
*138 _0220_
*139 _0221_
*140 _0222_
*141 _0223_
*142 _0224_
*143 _0225_
*144 _0226_
*145 _0227_
*146 _0228_
*147 _0229_
*148 _0230_
*149 _0231_
*150 _0232_
*151 _0233_
*152 _0234_
*153 _0235_
*154 _0236_
*155 _0237_
*156 _0238_
*157 _0239_
*158 _0240_
*159 _0241_
*160 _0242_
*161 _0243_
*162 _0244_
*163 _0245_
*164 _0246_
*165 _0247_
*166 _0248_
*167 _0249_
*168 _0250_
*169 _0251_
*170 _0252_
*171 _0253_
*172 _0254_
*173 _0255_
*174 _0256_
*175 _0257_
*176 _0258_
*177 _0259_
*178 _0260_
*179 _0261_
*180 _0262_
*181 _0263_
*182 _0264_
*183 _0265_
*184 _0266_
*185 _0267_
*186 _0268_
*187 _0269_
*188 _0270_
*189 _0271_
*190 _0272_
*191 _0273_
*192 _0274_
*193 _0275_
*194 _0276_
*195 _0277_
*196 _0278_
*197 _0279_
*198 _0280_
*199 _0281_
*200 _0282_
*201 _0283_
*202 _0284_
*203 _0285_
*204 _0286_
*205 _0287_
*206 _0288_
*207 _0289_
*208 _0290_
*209 _0291_
*210 _0292_
*211 _0293_
*212 _0294_
*213 _0295_
*214 _0296_
*215 _0297_
*216 _0298_
*217 _0299_
*218 _0300_
*219 _0301_
*220 _0302_
*221 _0303_
*222 _0304_
*223 _0305_
*224 _0306_
*225 _0307_
*226 _0308_
*227 _0309_
*228 _0310_
*229 _0311_
*230 _0312_
*231 _0313_
*232 _0314_
*233 _0315_
*234 _0316_
*235 _0317_
*236 _0318_
*237 _0319_
*238 _0320_
*239 _0321_
*240 _0322_
*241 _0323_
*242 _0324_
*243 _0325_
*244 _0326_
*245 _0327_
*246 _0328_
*247 _0329_
*248 _0330_
*249 _0331_
*250 _0332_
*251 _0333_
*252 _0334_
*253 _0335_
*254 _0336_
*255 _0337_
*256 _0338_
*257 _0339_
*258 _0340_
*259 _0341_
*260 _0342_
*261 _0343_
*262 _0344_
*263 _0345_
*264 _0346_
*265 _0347_
*266 _0348_
*267 _0349_
*268 _0350_
*269 _0351_
*270 _0352_
*271 _0353_
*272 _0354_
*273 _0355_
*274 _0356_
*275 _0357_
*276 _0358_
*277 _0359_
*278 _0360_
*279 _0361_
*280 _0362_
*281 _0363_
*282 _0364_
*283 _0365_
*284 _0366_
*285 _0367_
*286 _0368_
*287 _0369_
*288 _0370_
*289 _0371_
*290 _0372_
*291 _0373_
*292 _0374_
*293 _0375_
*294 _0376_
*295 _0377_
*296 _0378_
*297 _0379_
*298 _0380_
*299 _0381_
*300 _0382_
*301 _0383_
*302 _0384_
*303 _0385_
*304 _0386_
*305 _0387_
*306 _0388_
*307 _0389_
*308 _0390_
*309 _0391_
*310 _0392_
*311 _0393_
*312 _0394_
*313 _0395_
*314 _0396_
*315 _0397_
*316 _0398_
*317 _0399_
*318 _0400_
*319 _0401_
*320 _0402_
*321 _0403_
*322 _0404_
*323 _0405_
*324 _0406_
*325 _0407_
*326 _0408_
*327 _0409_
*328 _0410_
*329 _0411_
*330 _0412_
*331 _0413_
*332 _0414_
*333 _0415_
*334 _0416_
*335 _0417_
*336 _0418_
*337 _0419_
*338 _0420_
*339 _0421_
*340 _0422_
*341 _0423_
*342 _0424_
*343 _0425_
*344 _0426_
*345 _0427_
*346 _0428_
*347 _0429_
*348 _0430_
*349 _0431_
*350 _0432_
*351 _0433_
*352 _0434_
*353 _0435_
*354 _0436_
*355 _0437_
*356 _0438_
*357 _0439_
*358 _0440_
*359 _0441_
*360 _0442_
*361 _0443_
*362 _0444_
*363 _0445_
*364 _0446_
*365 _0447_
*366 _0448_
*367 _0449_
*368 _0450_
*369 _0451_
*370 _0452_
*371 _0453_
*372 _0454_
*373 _0455_
*374 _0456_
*375 _0457_
*376 _0458_
*377 _0459_
*378 _0460_
*379 _0461_
*380 _0462_
*381 _0463_
*382 _0464_
*383 _0465_
*384 _0466_
*385 _0467_
*386 _0468_
*387 _0469_
*388 _0470_
*389 _0471_
*390 _0472_
*391 _0473_
*392 _0474_
*393 _0475_
*394 _0476_
*395 _0477_
*396 _0478_
*397 _0479_
*398 _0480_
*399 _0481_
*400 _0482_
*401 _0483_
*402 _0484_
*403 _0485_
*404 _0486_
*405 _0487_
*406 _0488_
*407 _0489_
*408 _0490_
*409 _0491_
*410 _0492_
*411 _0493_
*412 _0494_
*413 _0495_
*414 _0496_
*415 _0497_
*416 _0498_
*417 _0499_
*418 _0500_
*419 _0501_
*420 _0502_
*421 _0503_
*422 _0504_
*423 _0505_
*424 _0506_
*425 _0507_
*426 _0508_
*427 _0509_
*428 _0510_
*429 _0511_
*430 _0512_
*431 _0513_
*432 _0514_
*433 _0515_
*434 _0516_
*435 _0517_
*436 _0518_
*437 _0519_
*438 _0520_
*439 _0521_
*440 _0522_
*441 _0523_
*442 _0524_
*443 _0525_
*444 _0526_
*445 _0527_
*446 _0528_
*447 _0529_
*448 _0530_
*449 _0531_
*450 _0532_
*451 _0533_
*452 _0534_
*453 _0535_
*454 _0536_
*455 _0537_
*456 _0538_
*457 _0539_
*458 _0540_
*459 _0541_
*460 _0542_
*461 _0543_
*462 _0544_
*463 _0545_
*464 _0546_
*465 _0547_
*466 _0548_
*467 _0549_
*468 _0550_
*469 _0551_
*470 _0552_
*471 _0553_
*472 _0554_
*473 _0555_
*474 _0556_
*475 _0557_
*476 _0558_
*477 clknet_0__0467_
*478 clknet_0__0468_
*479 clknet_0__0469_
*480 clknet_0__0470_
*481 clknet_0__0471_
*482 clknet_0__0472_
*483 clknet_0__0473_
*484 clknet_0__0474_
*485 clknet_0__0475_
*486 clknet_0__0476_
*487 clknet_0__0477_
*488 clknet_0__0478_
*489 clknet_0__0479_
*490 clknet_0__0480_
*491 clknet_0_clk
*492 clknet_1_0__leaf__0467_
*493 clknet_1_0__leaf__0468_
*494 clknet_1_0__leaf__0469_
*495 clknet_1_0__leaf__0470_
*496 clknet_1_0__leaf__0471_
*497 clknet_1_0__leaf__0472_
*498 clknet_1_0__leaf__0473_
*499 clknet_1_0__leaf__0474_
*500 clknet_1_0__leaf__0475_
*501 clknet_1_0__leaf__0476_
*502 clknet_1_0__leaf__0477_
*503 clknet_1_0__leaf__0478_
*504 clknet_1_0__leaf__0479_
*505 clknet_1_0__leaf__0480_
*506 clknet_1_0__leaf_clk
*507 clknet_1_1__leaf__0467_
*508 clknet_1_1__leaf__0468_
*509 clknet_1_1__leaf__0469_
*510 clknet_1_1__leaf__0470_
*511 clknet_1_1__leaf__0471_
*512 clknet_1_1__leaf__0472_
*513 clknet_1_1__leaf__0473_
*514 clknet_1_1__leaf__0474_
*515 clknet_1_1__leaf__0475_
*516 clknet_1_1__leaf__0476_
*517 clknet_1_1__leaf__0477_
*518 clknet_1_1__leaf__0478_
*519 clknet_1_1__leaf__0479_
*520 clknet_1_1__leaf__0480_
*521 clknet_1_1__leaf_clk
*522 net1
*523 net100
*524 net101
*525 net102
*526 net103
*527 net104
*528 net105
*529 net106
*530 net107
*531 net108
*532 net109
*533 net110
*534 net111
*535 net112
*536 net113
*537 net114
*538 net115
*539 net116
*540 net117
*541 net118
*542 net119
*543 net120
*544 net121
*545 net122
*546 net123
*547 net124
*548 net125
*549 net126
*550 net127
*551 net128
*552 net129
*553 net130
*554 net131
*555 net132
*556 net133
*557 net134
*558 net135
*559 net136
*560 net137
*561 net138
*562 net139
*563 net140
*564 net141
*565 net142
*566 net143
*567 net144
*568 net145
*569 net146
*570 net147
*571 net148
*572 net149
*573 net150
*574 net151
*575 net152
*576 net153
*577 net154
*578 net155
*579 net156
*580 net157
*581 net158
*582 net159
*583 net160
*584 net161
*585 net162
*586 net163
*587 net164
*588 net165
*589 net166
*590 net167
*591 net168
*592 net169
*593 net170
*594 net171
*595 net172
*596 net173
*597 net174
*598 net175
*599 net176
*600 net177
*601 net178
*602 net179
*603 net18
*604 net180
*605 net181
*606 net182
*607 net183
*608 net184
*609 net185
*610 net186
*611 net187
*612 net188
*613 net189
*614 net19
*615 net190
*616 net191
*617 net192
*618 net193
*619 net194
*620 net195
*621 net196
*622 net197
*623 net198
*624 net199
*625 net2
*626 net20
*627 net200
*628 net201
*629 net202
*630 net203
*631 net204
*632 net205
*633 net206
*634 net207
*635 net208
*636 net209
*637 net21
*638 net210
*639 net211
*640 net212
*641 net213
*642 net214
*643 net215
*644 net216
*645 net217
*646 net218
*647 net219
*648 net22
*649 net220
*650 net221
*651 net222
*652 net223
*653 net224
*654 net225
*655 net226
*656 net227
*657 net228
*658 net229
*659 net23
*660 net230
*661 net231
*662 net232
*663 net233
*664 net234
*665 net235
*666 net236
*667 net237
*668 net238
*669 net239
*670 net24
*671 net240
*672 net241
*673 net242
*674 net243
*675 net244
*676 net245
*677 net246
*678 net247
*679 net248
*680 net249
*681 net25
*682 net250
*683 net251
*684 net252
*685 net253
*686 net254
*687 net255
*688 net256
*689 net257
*690 net258
*691 net259
*692 net26
*693 net260
*694 net261
*695 net262
*696 net263
*697 net264
*698 net265
*699 net266
*700 net267
*701 net268
*702 net269
*703 net27
*704 net270
*705 net271
*706 net272
*707 net273
*708 net274
*709 net275
*710 net276
*711 net277
*712 net278
*713 net279
*714 net28
*715 net280
*716 net281
*717 net282
*718 net283
*719 net284
*720 net285
*721 net286
*722 net287
*723 net288
*724 net289
*725 net29
*726 net290
*727 net291
*728 net292
*729 net293
*730 net294
*731 net295
*732 net296
*733 net297
*734 net298
*735 net299
*736 net3
*737 net30
*738 net300
*739 net301
*740 net302
*741 net303
*742 net304
*743 net305
*744 net306
*745 net307
*746 net308
*747 net309
*748 net31
*749 net310
*750 net311
*751 net312
*752 net313
*753 net314
*754 net315
*755 net316
*756 net317
*757 net318
*758 net319
*759 net32
*760 net320
*761 net321
*762 net322
*763 net323
*764 net324
*765 net325
*766 net326
*767 net327
*768 net328
*769 net329
*770 net33
*771 net330
*772 net331
*773 net332
*774 net333
*775 net334
*776 net335
*777 net336
*778 net337
*779 net338
*780 net339
*781 net34
*782 net340
*783 net341
*784 net342
*785 net343
*786 net344
*787 net345
*788 net346
*789 net347
*790 net348
*791 net349
*792 net35
*793 net350
*794 net351
*795 net36
*796 net37
*797 net38
*798 net39
*799 net4
*800 net40
*801 net41
*802 net42
*803 net43
*804 net44
*805 net45
*806 net46
*807 net47
*808 net48
*809 net49
*810 net5
*811 net50
*812 net51
*813 net52
*814 net53
*815 net54
*816 net55
*817 net56
*818 net57
*819 net58
*820 net59
*821 net6
*822 net60
*823 net61
*824 net62
*825 net63
*826 net64
*827 net65
*828 net66
*829 net67
*830 net68
*831 net69
*832 net7
*833 net70
*834 net71
*835 net72
*836 net73
*837 net74
*838 net75
*839 net76
*840 net77
*841 net78
*842 net79
*843 net8
*844 net80
*845 net81
*846 net82
*847 net83
*848 net84
*849 net85
*850 net86
*851 net87
*852 net88
*853 net89
*854 net9
*855 net90
*856 net91
*857 net92
*858 net93
*859 net94
*860 net95
*861 net96
*862 net97
*863 net98
*864 net99
*865 vga_spi_rom\.data_buffer\[0\]
*866 vga_spi_rom\.data_buffer\[100\]
*867 vga_spi_rom\.data_buffer\[101\]
*868 vga_spi_rom\.data_buffer\[102\]
*869 vga_spi_rom\.data_buffer\[103\]
*870 vga_spi_rom\.data_buffer\[104\]
*871 vga_spi_rom\.data_buffer\[105\]
*872 vga_spi_rom\.data_buffer\[106\]
*873 vga_spi_rom\.data_buffer\[107\]
*874 vga_spi_rom\.data_buffer\[108\]
*875 vga_spi_rom\.data_buffer\[109\]
*876 vga_spi_rom\.data_buffer\[10\]
*877 vga_spi_rom\.data_buffer\[110\]
*878 vga_spi_rom\.data_buffer\[111\]
*879 vga_spi_rom\.data_buffer\[112\]
*880 vga_spi_rom\.data_buffer\[113\]
*881 vga_spi_rom\.data_buffer\[114\]
*882 vga_spi_rom\.data_buffer\[115\]
*883 vga_spi_rom\.data_buffer\[116\]
*884 vga_spi_rom\.data_buffer\[117\]
*885 vga_spi_rom\.data_buffer\[118\]
*886 vga_spi_rom\.data_buffer\[119\]
*887 vga_spi_rom\.data_buffer\[11\]
*888 vga_spi_rom\.data_buffer\[120\]
*889 vga_spi_rom\.data_buffer\[121\]
*890 vga_spi_rom\.data_buffer\[122\]
*891 vga_spi_rom\.data_buffer\[123\]
*892 vga_spi_rom\.data_buffer\[124\]
*893 vga_spi_rom\.data_buffer\[125\]
*894 vga_spi_rom\.data_buffer\[126\]
*895 vga_spi_rom\.data_buffer\[127\]
*896 vga_spi_rom\.data_buffer\[12\]
*897 vga_spi_rom\.data_buffer\[13\]
*898 vga_spi_rom\.data_buffer\[14\]
*899 vga_spi_rom\.data_buffer\[15\]
*900 vga_spi_rom\.data_buffer\[16\]
*901 vga_spi_rom\.data_buffer\[17\]
*902 vga_spi_rom\.data_buffer\[18\]
*903 vga_spi_rom\.data_buffer\[19\]
*904 vga_spi_rom\.data_buffer\[1\]
*905 vga_spi_rom\.data_buffer\[20\]
*906 vga_spi_rom\.data_buffer\[21\]
*907 vga_spi_rom\.data_buffer\[22\]
*908 vga_spi_rom\.data_buffer\[23\]
*909 vga_spi_rom\.data_buffer\[24\]
*910 vga_spi_rom\.data_buffer\[25\]
*911 vga_spi_rom\.data_buffer\[26\]
*912 vga_spi_rom\.data_buffer\[27\]
*913 vga_spi_rom\.data_buffer\[28\]
*914 vga_spi_rom\.data_buffer\[29\]
*915 vga_spi_rom\.data_buffer\[2\]
*916 vga_spi_rom\.data_buffer\[30\]
*917 vga_spi_rom\.data_buffer\[31\]
*918 vga_spi_rom\.data_buffer\[32\]
*919 vga_spi_rom\.data_buffer\[33\]
*920 vga_spi_rom\.data_buffer\[34\]
*921 vga_spi_rom\.data_buffer\[35\]
*922 vga_spi_rom\.data_buffer\[36\]
*923 vga_spi_rom\.data_buffer\[37\]
*924 vga_spi_rom\.data_buffer\[38\]
*925 vga_spi_rom\.data_buffer\[39\]
*926 vga_spi_rom\.data_buffer\[3\]
*927 vga_spi_rom\.data_buffer\[40\]
*928 vga_spi_rom\.data_buffer\[41\]
*929 vga_spi_rom\.data_buffer\[42\]
*930 vga_spi_rom\.data_buffer\[43\]
*931 vga_spi_rom\.data_buffer\[44\]
*932 vga_spi_rom\.data_buffer\[45\]
*933 vga_spi_rom\.data_buffer\[46\]
*934 vga_spi_rom\.data_buffer\[47\]
*935 vga_spi_rom\.data_buffer\[48\]
*936 vga_spi_rom\.data_buffer\[49\]
*937 vga_spi_rom\.data_buffer\[4\]
*938 vga_spi_rom\.data_buffer\[50\]
*939 vga_spi_rom\.data_buffer\[51\]
*940 vga_spi_rom\.data_buffer\[52\]
*941 vga_spi_rom\.data_buffer\[53\]
*942 vga_spi_rom\.data_buffer\[54\]
*943 vga_spi_rom\.data_buffer\[55\]
*944 vga_spi_rom\.data_buffer\[56\]
*945 vga_spi_rom\.data_buffer\[57\]
*946 vga_spi_rom\.data_buffer\[58\]
*947 vga_spi_rom\.data_buffer\[59\]
*948 vga_spi_rom\.data_buffer\[5\]
*949 vga_spi_rom\.data_buffer\[60\]
*950 vga_spi_rom\.data_buffer\[61\]
*951 vga_spi_rom\.data_buffer\[62\]
*952 vga_spi_rom\.data_buffer\[63\]
*953 vga_spi_rom\.data_buffer\[64\]
*954 vga_spi_rom\.data_buffer\[65\]
*955 vga_spi_rom\.data_buffer\[66\]
*956 vga_spi_rom\.data_buffer\[67\]
*957 vga_spi_rom\.data_buffer\[68\]
*958 vga_spi_rom\.data_buffer\[69\]
*959 vga_spi_rom\.data_buffer\[6\]
*960 vga_spi_rom\.data_buffer\[70\]
*961 vga_spi_rom\.data_buffer\[71\]
*962 vga_spi_rom\.data_buffer\[72\]
*963 vga_spi_rom\.data_buffer\[73\]
*964 vga_spi_rom\.data_buffer\[74\]
*965 vga_spi_rom\.data_buffer\[75\]
*966 vga_spi_rom\.data_buffer\[76\]
*967 vga_spi_rom\.data_buffer\[77\]
*968 vga_spi_rom\.data_buffer\[78\]
*969 vga_spi_rom\.data_buffer\[79\]
*970 vga_spi_rom\.data_buffer\[7\]
*971 vga_spi_rom\.data_buffer\[80\]
*972 vga_spi_rom\.data_buffer\[81\]
*973 vga_spi_rom\.data_buffer\[82\]
*974 vga_spi_rom\.data_buffer\[83\]
*975 vga_spi_rom\.data_buffer\[84\]
*976 vga_spi_rom\.data_buffer\[85\]
*977 vga_spi_rom\.data_buffer\[86\]
*978 vga_spi_rom\.data_buffer\[87\]
*979 vga_spi_rom\.data_buffer\[88\]
*980 vga_spi_rom\.data_buffer\[89\]
*981 vga_spi_rom\.data_buffer\[8\]
*982 vga_spi_rom\.data_buffer\[90\]
*983 vga_spi_rom\.data_buffer\[91\]
*984 vga_spi_rom\.data_buffer\[92\]
*985 vga_spi_rom\.data_buffer\[93\]
*986 vga_spi_rom\.data_buffer\[94\]
*987 vga_spi_rom\.data_buffer\[95\]
*988 vga_spi_rom\.data_buffer\[96\]
*989 vga_spi_rom\.data_buffer\[97\]
*990 vga_spi_rom\.data_buffer\[98\]
*991 vga_spi_rom\.data_buffer\[99\]
*992 vga_spi_rom\.data_buffer\[9\]
*993 vga_spi_rom\.hpos\[0\]
*994 vga_spi_rom\.hpos\[1\]
*995 vga_spi_rom\.hpos\[2\]
*996 vga_spi_rom\.hpos\[3\]
*997 vga_spi_rom\.hpos\[4\]
*998 vga_spi_rom\.hpos\[5\]
*999 vga_spi_rom\.hpos\[6\]
*1000 vga_spi_rom\.hpos\[7\]
*1001 vga_spi_rom\.hpos\[8\]
*1002 vga_spi_rom\.hpos\[9\]
*1003 vga_spi_rom\.hsync
*1004 vga_spi_rom\.hsync_n
*1005 vga_spi_rom\.spi_cs
*1006 vga_spi_rom\.spi_mosi
*1007 vga_spi_rom\.vga_sync\.vpos\[0\]
*1008 vga_spi_rom\.vga_sync\.vpos\[1\]
*1009 vga_spi_rom\.vga_sync\.vpos\[2\]
*1010 vga_spi_rom\.vga_sync\.vpos\[3\]
*1011 vga_spi_rom\.vga_sync\.vpos\[4\]
*1012 vga_spi_rom\.vga_sync\.vpos\[5\]
*1013 vga_spi_rom\.vga_sync\.vpos\[6\]
*1014 vga_spi_rom\.vga_sync\.vpos\[7\]
*1015 vga_spi_rom\.vga_sync\.vpos\[8\]
*1016 vga_spi_rom\.vga_sync\.vpos\[9\]
*1017 vga_spi_rom\.vga_sync\.vsync
*1018 vga_spi_rom\.vsync_n
*1019 FILLER_0_0_109
*1020 FILLER_0_0_113
*1021 FILLER_0_0_125
*1022 FILLER_0_0_137
*1023 FILLER_0_0_141
*1024 FILLER_0_0_15
*1025 FILLER_0_0_153
*1026 FILLER_0_0_165
*1027 FILLER_0_0_169
*1028 FILLER_0_0_181
*1029 FILLER_0_0_193
*1030 FILLER_0_0_197
*1031 FILLER_0_0_209
*1032 FILLER_0_0_221
*1033 FILLER_0_0_225
*1034 FILLER_0_0_237
*1035 FILLER_0_0_249
*1036 FILLER_0_0_253
*1037 FILLER_0_0_265
*1038 FILLER_0_0_27
*1039 FILLER_0_0_277
*1040 FILLER_0_0_281
*1041 FILLER_0_0_29
*1042 FILLER_0_0_293
*1043 FILLER_0_0_3
*1044 FILLER_0_0_305
*1045 FILLER_0_0_309
*1046 FILLER_0_0_321
*1047 FILLER_0_0_333
*1048 FILLER_0_0_337
*1049 FILLER_0_0_349
*1050 FILLER_0_0_41
*1051 FILLER_0_0_53
*1052 FILLER_0_0_57
*1053 FILLER_0_0_69
*1054 FILLER_0_0_81
*1055 FILLER_0_0_85
*1056 FILLER_0_0_97
*1057 FILLER_0_10_109
*1058 FILLER_0_10_119
*1059 FILLER_0_10_149
*1060 FILLER_0_10_16
*1061 FILLER_0_10_195
*1062 FILLER_0_10_205
*1063 FILLER_0_10_251
*1064 FILLER_0_10_264
*1065 FILLER_0_10_280
*1066 FILLER_0_10_285
*1067 FILLER_0_10_29
*1068 FILLER_0_10_297
*1069 FILLER_0_10_3
*1070 FILLER_0_10_305
*1071 FILLER_0_10_309
*1072 FILLER_0_10_321
*1073 FILLER_0_10_333
*1074 FILLER_0_10_345
*1075 FILLER_0_10_68
*1076 FILLER_0_10_77
*1077 FILLER_0_10_9
*1078 FILLER_0_11_103
*1079 FILLER_0_11_113
*1080 FILLER_0_11_124
*1081 FILLER_0_11_147
*1082 FILLER_0_11_214
*1083 FILLER_0_11_220
*1084 FILLER_0_11_225
*1085 FILLER_0_11_290
*1086 FILLER_0_11_299
*1087 FILLER_0_11_3
*1088 FILLER_0_11_311
*1089 FILLER_0_11_323
*1090 FILLER_0_11_335
*1091 FILLER_0_11_337
*1092 FILLER_0_11_349
*1093 FILLER_0_11_54
*1094 FILLER_0_11_57
*1095 FILLER_0_12_10
*1096 FILLER_0_12_123
*1097 FILLER_0_12_150
*1098 FILLER_0_12_18
*1099 FILLER_0_12_195
*1100 FILLER_0_12_205
*1101 FILLER_0_12_209
*1102 FILLER_0_12_230
*1103 FILLER_0_12_250
*1104 FILLER_0_12_253
*1105 FILLER_0_12_270
*1106 FILLER_0_12_29
*1107 FILLER_0_12_3
*1108 FILLER_0_12_302
*1109 FILLER_0_12_309
*1110 FILLER_0_12_321
*1111 FILLER_0_12_333
*1112 FILLER_0_12_345
*1113 FILLER_0_12_55
*1114 FILLER_0_12_70
*1115 FILLER_0_13_11
*1116 FILLER_0_13_110
*1117 FILLER_0_13_200
*1118 FILLER_0_13_225
*1119 FILLER_0_13_229
*1120 FILLER_0_13_23
*1121 FILLER_0_13_241
*1122 FILLER_0_13_263
*1123 FILLER_0_13_27
*1124 FILLER_0_13_273
*1125 FILLER_0_13_279
*1126 FILLER_0_13_281
*1127 FILLER_0_13_3
*1128 FILLER_0_13_300
*1129 FILLER_0_13_312
*1130 FILLER_0_13_324
*1131 FILLER_0_13_337
*1132 FILLER_0_13_349
*1133 FILLER_0_13_39
*1134 FILLER_0_13_49
*1135 FILLER_0_13_55
*1136 FILLER_0_13_57
*1137 FILLER_0_13_61
*1138 FILLER_0_13_7
*1139 FILLER_0_13_78
*1140 FILLER_0_14_105
*1141 FILLER_0_14_125
*1142 FILLER_0_14_139
*1143 FILLER_0_14_141
*1144 FILLER_0_14_162
*1145 FILLER_0_14_174
*1146 FILLER_0_14_195
*1147 FILLER_0_14_200
*1148 FILLER_0_14_206
*1149 FILLER_0_14_215
*1150 FILLER_0_14_23
*1151 FILLER_0_14_232
*1152 FILLER_0_14_253
*1153 FILLER_0_14_274
*1154 FILLER_0_14_29
*1155 FILLER_0_14_303
*1156 FILLER_0_14_307
*1157 FILLER_0_14_309
*1158 FILLER_0_14_321
*1159 FILLER_0_14_333
*1160 FILLER_0_14_345
*1161 FILLER_0_14_49
*1162 FILLER_0_14_82
*1163 FILLER_0_15_111
*1164 FILLER_0_15_116
*1165 FILLER_0_15_150
*1166 FILLER_0_15_185
*1167 FILLER_0_15_257
*1168 FILLER_0_15_272
*1169 FILLER_0_15_281
*1170 FILLER_0_15_295
*1171 FILLER_0_15_3
*1172 FILLER_0_15_307
*1173 FILLER_0_15_319
*1174 FILLER_0_15_331
*1175 FILLER_0_15_335
*1176 FILLER_0_15_337
*1177 FILLER_0_15_349
*1178 FILLER_0_15_38
*1179 FILLER_0_15_73
*1180 FILLER_0_15_92
*1181 FILLER_0_16_112
*1182 FILLER_0_16_118
*1183 FILLER_0_16_13
*1184 FILLER_0_16_138
*1185 FILLER_0_16_17
*1186 FILLER_0_16_181
*1187 FILLER_0_16_209
*1188 FILLER_0_16_228
*1189 FILLER_0_16_242
*1190 FILLER_0_16_250
*1191 FILLER_0_16_253
*1192 FILLER_0_16_275
*1193 FILLER_0_16_297
*1194 FILLER_0_16_3
*1195 FILLER_0_16_318
*1196 FILLER_0_16_330
*1197 FILLER_0_16_342
*1198 FILLER_0_16_350
*1199 FILLER_0_16_38
*1200 FILLER_0_16_56
*1201 FILLER_0_16_66
*1202 FILLER_0_16_9
*1203 FILLER_0_17_103
*1204 FILLER_0_17_122
*1205 FILLER_0_17_143
*1206 FILLER_0_17_161
*1207 FILLER_0_17_177
*1208 FILLER_0_17_195
*1209 FILLER_0_17_249
*1210 FILLER_0_17_273
*1211 FILLER_0_17_279
*1212 FILLER_0_17_281
*1213 FILLER_0_17_297
*1214 FILLER_0_17_3
*1215 FILLER_0_17_303
*1216 FILLER_0_17_322
*1217 FILLER_0_17_334
*1218 FILLER_0_17_337
*1219 FILLER_0_17_349
*1220 FILLER_0_17_86
*1221 FILLER_0_17_90
*1222 FILLER_0_18_11
*1223 FILLER_0_18_111
*1224 FILLER_0_18_162
*1225 FILLER_0_18_197
*1226 FILLER_0_18_218
*1227 FILLER_0_18_253
*1228 FILLER_0_18_259
*1229 FILLER_0_18_277
*1230 FILLER_0_18_3
*1231 FILLER_0_18_304
*1232 FILLER_0_18_334
*1233 FILLER_0_18_346
*1234 FILLER_0_18_350
*1235 FILLER_0_18_72
*1236 FILLER_0_18_81
*1237 FILLER_0_18_85
*1238 FILLER_0_19_103
*1239 FILLER_0_19_113
*1240 FILLER_0_19_137
*1241 FILLER_0_19_165
*1242 FILLER_0_19_187
*1243 FILLER_0_19_251
*1244 FILLER_0_19_257
*1245 FILLER_0_19_289
*1246 FILLER_0_19_3
*1247 FILLER_0_19_327
*1248 FILLER_0_19_335
*1249 FILLER_0_19_337
*1250 FILLER_0_19_349
*1251 FILLER_0_19_51
*1252 FILLER_0_19_57
*1253 FILLER_0_19_9
*1254 FILLER_0_1_105
*1255 FILLER_0_1_111
*1256 FILLER_0_1_113
*1257 FILLER_0_1_125
*1258 FILLER_0_1_137
*1259 FILLER_0_1_149
*1260 FILLER_0_1_15
*1261 FILLER_0_1_161
*1262 FILLER_0_1_167
*1263 FILLER_0_1_169
*1264 FILLER_0_1_181
*1265 FILLER_0_1_193
*1266 FILLER_0_1_205
*1267 FILLER_0_1_217
*1268 FILLER_0_1_223
*1269 FILLER_0_1_225
*1270 FILLER_0_1_237
*1271 FILLER_0_1_249
*1272 FILLER_0_1_261
*1273 FILLER_0_1_27
*1274 FILLER_0_1_273
*1275 FILLER_0_1_279
*1276 FILLER_0_1_281
*1277 FILLER_0_1_293
*1278 FILLER_0_1_3
*1279 FILLER_0_1_305
*1280 FILLER_0_1_317
*1281 FILLER_0_1_329
*1282 FILLER_0_1_335
*1283 FILLER_0_1_337
*1284 FILLER_0_1_349
*1285 FILLER_0_1_39
*1286 FILLER_0_1_51
*1287 FILLER_0_1_55
*1288 FILLER_0_1_57
*1289 FILLER_0_1_69
*1290 FILLER_0_1_81
*1291 FILLER_0_1_93
*1292 FILLER_0_20_137
*1293 FILLER_0_20_14
*1294 FILLER_0_20_141
*1295 FILLER_0_20_170
*1296 FILLER_0_20_213
*1297 FILLER_0_20_256
*1298 FILLER_0_20_26
*1299 FILLER_0_20_3
*1300 FILLER_0_20_304
*1301 FILLER_0_20_309
*1302 FILLER_0_20_340
*1303 FILLER_0_20_348
*1304 FILLER_0_20_40
*1305 FILLER_0_20_49
*1306 FILLER_0_20_60
*1307 FILLER_0_20_65
*1308 FILLER_0_20_88
*1309 FILLER_0_20_92
*1310 FILLER_0_21_107
*1311 FILLER_0_21_111
*1312 FILLER_0_21_113
*1313 FILLER_0_21_143
*1314 FILLER_0_21_15
*1315 FILLER_0_21_166
*1316 FILLER_0_21_169
*1317 FILLER_0_21_181
*1318 FILLER_0_21_189
*1319 FILLER_0_21_219
*1320 FILLER_0_21_268
*1321 FILLER_0_21_281
*1322 FILLER_0_21_287
*1323 FILLER_0_21_3
*1324 FILLER_0_21_308
*1325 FILLER_0_21_334
*1326 FILLER_0_21_337
*1327 FILLER_0_21_349
*1328 FILLER_0_21_47
*1329 FILLER_0_21_51
*1330 FILLER_0_21_55
*1331 FILLER_0_21_92
*1332 FILLER_0_22_11
*1333 FILLER_0_22_136
*1334 FILLER_0_22_15
*1335 FILLER_0_22_158
*1336 FILLER_0_22_166
*1337 FILLER_0_22_194
*1338 FILLER_0_22_213
*1339 FILLER_0_22_236
*1340 FILLER_0_22_250
*1341 FILLER_0_22_281
*1342 FILLER_0_22_291
*1343 FILLER_0_22_3
*1344 FILLER_0_22_304
*1345 FILLER_0_22_328
*1346 FILLER_0_22_340
*1347 FILLER_0_22_348
*1348 FILLER_0_22_37
*1349 FILLER_0_22_61
*1350 FILLER_0_22_71
*1351 FILLER_0_22_88
*1352 FILLER_0_23_108
*1353 FILLER_0_23_113
*1354 FILLER_0_23_165
*1355 FILLER_0_23_196
*1356 FILLER_0_23_201
*1357 FILLER_0_23_217
*1358 FILLER_0_23_222
*1359 FILLER_0_23_228
*1360 FILLER_0_23_3
*1361 FILLER_0_23_316
*1362 FILLER_0_23_330
*1363 FILLER_0_23_337
*1364 FILLER_0_23_349
*1365 FILLER_0_23_7
*1366 FILLER_0_23_81
*1367 FILLER_0_23_91
*1368 FILLER_0_24_111
*1369 FILLER_0_24_141
*1370 FILLER_0_24_162
*1371 FILLER_0_24_191
*1372 FILLER_0_24_195
*1373 FILLER_0_24_209
*1374 FILLER_0_24_23
*1375 FILLER_0_24_251
*1376 FILLER_0_24_253
*1377 FILLER_0_24_262
*1378 FILLER_0_24_27
*1379 FILLER_0_24_29
*1380 FILLER_0_24_317
*1381 FILLER_0_24_338
*1382 FILLER_0_24_350
*1383 FILLER_0_24_49
*1384 FILLER_0_24_85
*1385 FILLER_0_25_140
*1386 FILLER_0_25_15
*1387 FILLER_0_25_161
*1388 FILLER_0_25_167
*1389 FILLER_0_25_185
*1390 FILLER_0_25_189
*1391 FILLER_0_25_220
*1392 FILLER_0_25_225
*1393 FILLER_0_25_249
*1394 FILLER_0_25_290
*1395 FILLER_0_25_3
*1396 FILLER_0_25_308
*1397 FILLER_0_25_312
*1398 FILLER_0_25_316
*1399 FILLER_0_25_327
*1400 FILLER_0_25_337
*1401 FILLER_0_25_34
*1402 FILLER_0_25_349
*1403 FILLER_0_25_55
*1404 FILLER_0_25_65
*1405 FILLER_0_26_112
*1406 FILLER_0_26_127
*1407 FILLER_0_26_139
*1408 FILLER_0_26_141
*1409 FILLER_0_26_169
*1410 FILLER_0_26_173
*1411 FILLER_0_26_181
*1412 FILLER_0_26_190
*1413 FILLER_0_26_194
*1414 FILLER_0_26_197
*1415 FILLER_0_26_205
*1416 FILLER_0_26_211
*1417 FILLER_0_26_219
*1418 FILLER_0_26_24
*1419 FILLER_0_26_251
*1420 FILLER_0_26_29
*1421 FILLER_0_26_3
*1422 FILLER_0_26_304
*1423 FILLER_0_26_318
*1424 FILLER_0_26_335
*1425 FILLER_0_26_347
*1426 FILLER_0_26_85
*1427 FILLER_0_27_121
*1428 FILLER_0_27_125
*1429 FILLER_0_27_135
*1430 FILLER_0_27_139
*1431 FILLER_0_27_148
*1432 FILLER_0_27_160
*1433 FILLER_0_27_167
*1434 FILLER_0_27_179
*1435 FILLER_0_27_187
*1436 FILLER_0_27_200
*1437 FILLER_0_27_217
*1438 FILLER_0_27_223
*1439 FILLER_0_27_225
*1440 FILLER_0_27_230
*1441 FILLER_0_27_238
*1442 FILLER_0_27_243
*1443 FILLER_0_27_252
*1444 FILLER_0_27_279
*1445 FILLER_0_27_281
*1446 FILLER_0_27_29
*1447 FILLER_0_27_296
*1448 FILLER_0_27_3
*1449 FILLER_0_27_308
*1450 FILLER_0_27_323
*1451 FILLER_0_27_335
*1452 FILLER_0_27_337
*1453 FILLER_0_27_349
*1454 FILLER_0_27_52
*1455 FILLER_0_27_60
*1456 FILLER_0_28_149
*1457 FILLER_0_28_156
*1458 FILLER_0_28_165
*1459 FILLER_0_28_171
*1460 FILLER_0_28_192
*1461 FILLER_0_28_197
*1462 FILLER_0_28_209
*1463 FILLER_0_28_216
*1464 FILLER_0_28_22
*1465 FILLER_0_28_228
*1466 FILLER_0_28_244
*1467 FILLER_0_28_289
*1468 FILLER_0_28_29
*1469 FILLER_0_28_307
*1470 FILLER_0_28_309
*1471 FILLER_0_28_321
*1472 FILLER_0_28_325
*1473 FILLER_0_28_334
*1474 FILLER_0_28_346
*1475 FILLER_0_28_350
*1476 FILLER_0_28_58
*1477 FILLER_0_28_81
*1478 FILLER_0_28_97
*1479 FILLER_0_29_111
*1480 FILLER_0_29_124
*1481 FILLER_0_29_130
*1482 FILLER_0_29_148
*1483 FILLER_0_29_15
*1484 FILLER_0_29_156
*1485 FILLER_0_29_169
*1486 FILLER_0_29_191
*1487 FILLER_0_29_195
*1488 FILLER_0_29_208
*1489 FILLER_0_29_21
*1490 FILLER_0_29_223
*1491 FILLER_0_29_225
*1492 FILLER_0_29_281
*1493 FILLER_0_29_285
*1494 FILLER_0_29_3
*1495 FILLER_0_29_30
*1496 FILLER_0_29_302
*1497 FILLER_0_29_324
*1498 FILLER_0_29_337
*1499 FILLER_0_29_349
*1500 FILLER_0_29_50
*1501 FILLER_0_29_85
*1502 FILLER_0_2_104
*1503 FILLER_0_2_116
*1504 FILLER_0_2_124
*1505 FILLER_0_2_134
*1506 FILLER_0_2_141
*1507 FILLER_0_2_147
*1508 FILLER_0_2_15
*1509 FILLER_0_2_151
*1510 FILLER_0_2_163
*1511 FILLER_0_2_175
*1512 FILLER_0_2_187
*1513 FILLER_0_2_192
*1514 FILLER_0_2_197
*1515 FILLER_0_2_218
*1516 FILLER_0_2_228
*1517 FILLER_0_2_240
*1518 FILLER_0_2_253
*1519 FILLER_0_2_265
*1520 FILLER_0_2_27
*1521 FILLER_0_2_277
*1522 FILLER_0_2_289
*1523 FILLER_0_2_29
*1524 FILLER_0_2_3
*1525 FILLER_0_2_301
*1526 FILLER_0_2_307
*1527 FILLER_0_2_309
*1528 FILLER_0_2_321
*1529 FILLER_0_2_333
*1530 FILLER_0_2_345
*1531 FILLER_0_2_41
*1532 FILLER_0_2_53
*1533 FILLER_0_2_65
*1534 FILLER_0_2_77
*1535 FILLER_0_2_83
*1536 FILLER_0_2_85
*1537 FILLER_0_2_97
*1538 FILLER_0_30_112
*1539 FILLER_0_30_133
*1540 FILLER_0_30_138
*1541 FILLER_0_30_141
*1542 FILLER_0_30_15
*1543 FILLER_0_30_165
*1544 FILLER_0_30_194
*1545 FILLER_0_30_210
*1546 FILLER_0_30_214
*1547 FILLER_0_30_218
*1548 FILLER_0_30_246
*1549 FILLER_0_30_253
*1550 FILLER_0_30_27
*1551 FILLER_0_30_273
*1552 FILLER_0_30_285
*1553 FILLER_0_30_289
*1554 FILLER_0_30_29
*1555 FILLER_0_30_3
*1556 FILLER_0_30_301
*1557 FILLER_0_30_307
*1558 FILLER_0_30_317
*1559 FILLER_0_30_331
*1560 FILLER_0_30_350
*1561 FILLER_0_30_41
*1562 FILLER_0_30_53
*1563 FILLER_0_30_62
*1564 FILLER_0_30_83
*1565 FILLER_0_30_94
*1566 FILLER_0_31_110
*1567 FILLER_0_31_113
*1568 FILLER_0_31_125
*1569 FILLER_0_31_137
*1570 FILLER_0_31_149
*1571 FILLER_0_31_15
*1572 FILLER_0_31_158
*1573 FILLER_0_31_166
*1574 FILLER_0_31_169
*1575 FILLER_0_31_182
*1576 FILLER_0_31_209
*1577 FILLER_0_31_220
*1578 FILLER_0_31_243
*1579 FILLER_0_31_260
*1580 FILLER_0_31_27
*1581 FILLER_0_31_279
*1582 FILLER_0_31_281
*1583 FILLER_0_31_292
*1584 FILLER_0_31_3
*1585 FILLER_0_31_304
*1586 FILLER_0_31_332
*1587 FILLER_0_31_340
*1588 FILLER_0_31_348
*1589 FILLER_0_31_39
*1590 FILLER_0_31_51
*1591 FILLER_0_31_55
*1592 FILLER_0_31_57
*1593 FILLER_0_31_69
*1594 FILLER_0_31_81
*1595 FILLER_0_31_93
*1596 FILLER_0_32_109
*1597 FILLER_0_32_121
*1598 FILLER_0_32_125
*1599 FILLER_0_32_133
*1600 FILLER_0_32_148
*1601 FILLER_0_32_15
*1602 FILLER_0_32_160
*1603 FILLER_0_32_164
*1604 FILLER_0_32_173
*1605 FILLER_0_32_181
*1606 FILLER_0_32_194
*1607 FILLER_0_32_197
*1608 FILLER_0_32_205
*1609 FILLER_0_32_214
*1610 FILLER_0_32_219
*1611 FILLER_0_32_237
*1612 FILLER_0_32_249
*1613 FILLER_0_32_259
*1614 FILLER_0_32_27
*1615 FILLER_0_32_272
*1616 FILLER_0_32_287
*1617 FILLER_0_32_29
*1618 FILLER_0_32_296
*1619 FILLER_0_32_3
*1620 FILLER_0_32_300
*1621 FILLER_0_32_316
*1622 FILLER_0_32_324
*1623 FILLER_0_32_330
*1624 FILLER_0_32_334
*1625 FILLER_0_32_41
*1626 FILLER_0_32_53
*1627 FILLER_0_32_65
*1628 FILLER_0_32_77
*1629 FILLER_0_32_83
*1630 FILLER_0_32_85
*1631 FILLER_0_32_97
*1632 FILLER_0_33_105
*1633 FILLER_0_33_111
*1634 FILLER_0_33_113
*1635 FILLER_0_33_125
*1636 FILLER_0_33_137
*1637 FILLER_0_33_148
*1638 FILLER_0_33_15
*1639 FILLER_0_33_160