*SPEF "ieee 1481-1999"
*DESIGN "tt_um_uwuifier"
*DATE "11:11:11 Fri 11 11, 1111"
*VENDOR "OpenRCX"
*PROGRAM "Parallel Extraction"
*VERSION "1.0"
*DESIGN_FLOW "NAME_SCOPE LOCAL" "PIN_CAP NONE"
*DIVIDER /
*DELIMITER :
*BUS_DELIMITER []
*T_UNIT 1 NS
*C_UNIT 1 PF
*R_UNIT 1 OHM
*L_UNIT 1 HENRY

*NAME_MAP
*3 clk
*4 ena
*5 rst_n
*6 ui_in[0]
*7 ui_in[1]
*8 ui_in[2]
*9 ui_in[3]
*10 ui_in[4]
*11 ui_in[5]
*12 ui_in[6]
*13 ui_in[7]
*14 uio_in[0]
*15 uio_in[1]
*16 uio_in[2]
*17 uio_in[3]
*18 uio_in[4]
*19 uio_in[5]
*20 uio_in[6]
*21 uio_in[7]
*22 net6
*23 net7
*24 net8
*25 net9
*26 net10
*27 net11
*28 net12
*29 net13
*30 net14
*31 net15
*32 net16
*33 net17
*34 net18
*35 net19
*36 net20
*37 net21
*38 net22
*39 net23
*40 net24
*41 net25
*42 uo_out[4]
*43 net26
*44 net27
*45 net28
*46 _0000_
*47 _0001_
*48 _0002_
*49 _0003_
*50 _0004_
*51 _0005_
*52 _0006_
*53 _0007_
*54 _0008_
*55 _0009_
*56 _0010_
*57 _0011_
*58 _0012_
*59 _0013_
*60 _0014_
*61 _0015_
*62 _0016_
*63 _0017_
*64 _0018_
*65 _0019_
*66 _0020_
*67 _0021_
*68 _0022_
*69 _0023_
*70 _0024_
*71 _0025_
*72 _0026_
*73 _0027_
*74 _0028_
*75 _0029_
*76 _0030_
*77 _0031_
*78 _0032_
*79 _0033_
*80 _0034_
*81 _0035_
*82 _0036_
*83 _0037_
*84 _0038_
*85 _0039_
*86 _0040_
*87 _0041_
*88 _0042_
*89 _0043_
*90 _0044_
*91 _0045_
*92 _0046_
*93 _0047_
*94 _0048_
*95 _0049_
*96 _0050_
*97 _0051_
*98 _0052_
*99 _0053_
*100 _0054_
*101 _0055_
*102 _0056_
*103 _0057_
*104 _0058_
*105 _0059_
*106 _0060_
*107 _0061_
*108 _0062_
*109 _0063_
*110 _0064_
*111 _0065_
*112 _0066_
*113 _0067_
*114 _0068_
*115 _0069_
*116 _0070_
*117 _0071_
*118 _0072_
*119 _0073_
*120 _0074_
*121 _0075_
*122 _0076_
*123 _0077_
*124 _0078_
*125 _0079_
*126 _0080_
*127 _0081_
*128 _0082_
*129 _0083_
*130 _0084_
*131 _0085_
*132 _0086_
*133 _0087_
*134 _0088_
*135 _0089_
*136 _0090_
*137 _0091_
*138 _0092_
*139 _0093_
*140 _0094_
*141 _0095_
*142 _0096_
*143 _0097_
*144 _0098_
*145 _0099_
*146 _0100_
*147 _0101_
*148 _0102_
*149 _0103_
*150 _0104_
*151 _0105_
*152 _0106_
*153 _0107_
*154 _0108_
*155 _0109_
*156 _0110_
*157 _0111_
*158 _0112_
*159 _0113_
*160 _0114_
*161 _0115_
*162 _0116_
*163 _0117_
*164 _0118_
*165 _0119_
*166 _0120_
*167 _0121_
*168 _0122_
*169 _0123_
*170 _0124_
*171 _0125_
*172 _0126_
*173 _0127_
*174 _0128_
*175 _0129_
*176 _0130_
*177 _0131_
*178 _0132_
*179 _0133_
*180 _0134_
*181 _0135_
*182 _0136_
*183 _0137_
*184 _0138_
*185 _0139_
*186 _0140_
*187 _0141_
*188 _0142_
*189 _0143_
*190 _0144_
*191 _0145_
*192 _0146_
*193 _0147_
*194 _0148_
*195 _0149_
*196 _0150_
*197 _0151_
*198 _0152_
*199 _0153_
*200 _0154_
*201 _0155_
*202 _0156_
*203 _0157_
*204 _0158_
*205 _0159_
*206 _0160_
*207 _0161_
*208 _0162_
*209 _0163_
*210 _0164_
*211 _0165_
*212 _0166_
*213 _0167_
*214 _0168_
*215 _0169_
*216 _0170_
*217 _0171_
*218 _0172_
*219 _0173_
*220 _0174_
*221 _0175_
*222 _0176_
*223 _0177_
*224 _0178_
*225 _0179_
*226 _0180_
*227 _0181_
*228 _0182_
*229 _0183_
*230 _0184_
*231 _0185_
*232 _0186_
*233 _0187_
*234 _0188_
*235 _0189_
*236 _0190_
*237 _0191_
*238 _0192_
*239 _0193_
*240 _0194_
*241 _0195_
*242 _0196_
*243 _0197_
*244 _0198_
*245 _0199_
*246 _0200_
*247 _0201_
*248 _0202_
*249 _0203_
*250 _0204_
*251 _0205_
*252 _0206_
*253 _0207_
*254 _0208_
*255 _0209_
*256 _0210_
*257 _0211_
*258 _0212_
*259 _0213_
*260 _0214_
*261 _0215_
*262 _0216_
*263 _0217_
*264 _0218_
*265 _0219_
*266 _0220_
*267 _0221_
*268 _0222_
*269 _0223_
*270 _0224_
*271 _0225_
*272 _0226_
*273 _0227_
*274 _0228_
*275 _0229_
*276 _0230_
*277 _0231_
*278 _0232_
*279 _0233_
*280 _0234_
*281 _0235_
*282 _0236_
*283 _0237_
*284 _0238_
*285 _0239_
*286 _0240_
*287 _0241_
*288 _0242_
*289 _0243_
*290 _0244_
*291 _0245_
*292 _0246_
*293 _0247_
*294 _0248_
*295 _0249_
*296 _0250_
*297 _0251_
*298 _0252_
*299 _0253_
*300 _0254_
*301 _0255_
*302 _0256_
*303 _0257_
*304 _0258_
*305 _0259_
*306 _0260_
*307 _0261_
*308 _0262_
*309 _0263_
*310 _0264_
*311 _0265_
*312 _0266_
*313 _0267_
*314 _0268_
*315 _0269_
*316 _0270_
*317 _0271_
*318 _0272_
*319 _0273_
*320 _0274_
*321 _0275_
*322 _0276_
*323 _0277_
*324 _0278_
*325 _0279_
*326 _0280_
*327 _0281_
*328 _0282_
*329 _0283_
*330 _0284_
*331 _0285_
*332 _0286_
*333 _0287_
*334 _0288_
*335 _0289_
*336 _0290_
*337 _0291_
*338 _0292_
*339 _0293_
*340 _0294_
*341 _0295_
*342 _0296_
*343 _0297_
*344 _0298_
*345 _0299_
*346 _0300_
*347 _0301_
*348 _0302_
*349 _0303_
*350 _0304_
*351 _0305_
*352 _0306_
*353 _0307_
*354 _0308_
*355 _0309_
*356 _0310_
*357 _0311_
*358 _0312_
*359 _0313_
*360 _0314_
*361 _0315_
*362 _0316_
*363 _0317_
*364 _0318_
*365 _0319_
*366 _0320_
*367 _0321_
*368 _0322_
*369 _0323_
*370 _0324_
*371 _0325_
*372 _0326_
*373 _0327_
*374 _0328_
*375 _0329_
*376 _0330_
*377 _0331_
*378 _0332_
*379 _0333_
*380 _0334_
*381 _0335_
*382 _0336_
*383 _0337_
*384 _0338_
*385 _0339_
*386 _0340_
*387 _0341_
*388 _0342_
*389 _0343_
*390 _0344_
*391 _0345_
*392 _0346_
*393 _0347_
*394 _0348_
*395 _0349_
*396 _0350_
*397 _0351_
*398 _0352_
*399 _0353_
*400 _0354_
*401 _0355_
*402 _0356_
*403 _0357_
*404 _0358_
*405 _0359_
*406 _0360_
*407 _0361_
*408 _0362_
*409 _0363_
*410 _0364_
*411 _0365_
*412 _0366_
*413 _0367_
*414 _0368_
*415 _0369_
*416 _0370_
*417 _0371_
*418 _0372_
*419 _0373_
*420 _0374_
*421 _0375_
*422 _0376_
*423 _0377_
*424 _0378_
*425 _0379_
*426 _0380_
*427 _0381_
*428 _0382_
*429 _0383_
*430 _0384_
*431 _0385_
*432 _0386_
*433 _0387_
*434 _0388_
*435 _0389_
*436 _0390_
*437 _0391_
*438 _0392_
*439 _0393_
*440 _0394_
*441 _0395_
*442 _0396_
*443 _0397_
*444 _0398_
*445 _0399_
*446 _0400_
*447 _0401_
*448 _0402_
*449 _0403_
*450 _0404_
*451 _0405_
*452 _0406_
*453 _0407_
*454 _0408_
*455 _0409_
*456 _0410_
*457 _0411_
*458 _0412_
*459 _0413_
*460 _0414_
*461 _0415_
*462 _0416_
*463 _0417_
*464 _0418_
*465 _0419_
*466 _0420_
*467 _0421_
*468 _0422_
*469 _0423_
*470 _0424_
*471 _0425_
*472 _0426_
*473 _0427_
*474 _0428_
*475 _0429_
*476 _0430_
*477 _0431_
*478 _0432_
*479 _0433_
*480 _0434_
*481 _0435_
*482 _0436_
*483 _0437_
*484 _0438_
*485 _0439_
*486 _0440_
*487 _0441_
*488 _0442_
*489 _0443_
*490 _0444_
*491 _0445_
*492 _0446_
*493 _0447_
*494 _0448_
*495 _0449_
*496 _0450_
*497 _0451_
*498 _0452_
*499 _0453_
*500 clknet_0_clk
*501 clknet_4_0_0_clk
*502 clknet_4_10_0_clk
*503 clknet_4_11_0_clk
*504 clknet_4_12_0_clk
*505 clknet_4_13_0_clk
*506 clknet_4_14_0_clk
*507 clknet_4_15_0_clk
*508 clknet_4_1_0_clk
*509 clknet_4_2_0_clk
*510 clknet_4_3_0_clk
*511 clknet_4_4_0_clk
*512 clknet_4_5_0_clk
*513 clknet_4_6_0_clk
*514 clknet_4_7_0_clk
*515 clknet_4_8_0_clk
*516 clknet_4_9_0_clk
*517 dut\.fifo\.len\[0\]
*518 dut\.fifo\.len\[1\]
*519 dut\.fifo\.len\[2\]
*520 dut\.fifo\.len\[3\]
*521 dut\.fifo\.o_rd_data\[0\]
*522 dut\.fifo\.o_rd_data\[1\]
*523 dut\.fifo\.o_rd_data\[2\]
*524 dut\.fifo\.o_rd_data\[3\]
*525 dut\.fifo\.o_rd_data\[4\]
*526 dut\.fifo\.o_rd_data\[5\]
*527 dut\.fifo\.o_rd_data\[6\]
*528 dut\.fifo\.o_rd_data\[7\]
*529 dut\.fifo\.o_rd_valid
*530 dut\.fifo\.ram\[0\]\[0\]
*531 dut\.fifo\.ram\[0\]\[1\]
*532 dut\.fifo\.ram\[0\]\[2\]
*533 dut\.fifo\.ram\[0\]\[3\]
*534 dut\.fifo\.ram\[0\]\[4\]
*535 dut\.fifo\.ram\[0\]\[5\]
*536 dut\.fifo\.ram\[0\]\[6\]
*537 dut\.fifo\.ram\[0\]\[7\]
*538 dut\.fifo\.ram\[1\]\[0\]
*539 dut\.fifo\.ram\[1\]\[1\]
*540 dut\.fifo\.ram\[1\]\[2\]
*541 dut\.fifo\.ram\[1\]\[3\]
*542 dut\.fifo\.ram\[1\]\[4\]
*543 dut\.fifo\.ram\[1\]\[5\]
*544 dut\.fifo\.ram\[1\]\[6\]
*545 dut\.fifo\.ram\[1\]\[7\]
*546 dut\.fifo\.ram\[2\]\[0\]
*547 dut\.fifo\.ram\[2\]\[1\]
*548 dut\.fifo\.ram\[2\]\[2\]
*549 dut\.fifo\.ram\[2\]\[3\]
*550 dut\.fifo\.ram\[2\]\[4\]
*551 dut\.fifo\.ram\[2\]\[5\]
*552 dut\.fifo\.ram\[2\]\[6\]
*553 dut\.fifo\.ram\[2\]\[7\]
*554 dut\.fifo\.ram\[3\]\[0\]
*555 dut\.fifo\.ram\[3\]\[1\]
*556 dut\.fifo\.ram\[3\]\[2\]
*557 dut\.fifo\.ram\[3\]\[3\]
*558 dut\.fifo\.ram\[3\]\[4\]
*559 dut\.fifo\.ram\[3\]\[5\]
*560 dut\.fifo\.ram\[3\]\[6\]
*561 dut\.fifo\.ram\[3\]\[7\]
*562 dut\.fifo\.ram\[4\]\[0\]
*563 dut\.fifo\.ram\[4\]\[1\]
*564 dut\.fifo\.ram\[4\]\[2\]
*565 dut\.fifo\.ram\[4\]\[3\]
*566 dut\.fifo\.ram\[4\]\[4\]
*567 dut\.fifo\.ram\[4\]\[5\]
*568 dut\.fifo\.ram\[4\]\[6\]
*569 dut\.fifo\.ram\[4\]\[7\]
*570 dut\.fifo\.ram\[5\]\[0\]
*571 dut\.fifo\.ram\[5\]\[1\]
*572 dut\.fifo\.ram\[5\]\[2\]
*573 dut\.fifo\.ram\[5\]\[3\]
*574 dut\.fifo\.ram\[5\]\[4\]
*575 dut\.fifo\.ram\[5\]\[5\]
*576 dut\.fifo\.ram\[5\]\[6\]
*577 dut\.fifo\.ram\[5\]\[7\]
*578 dut\.fifo\.ram\[6\]\[0\]
*579 dut\.fifo\.ram\[6\]\[1\]
*580 dut\.fifo\.ram\[6\]\[2\]
*581 dut\.fifo\.ram\[6\]\[3\]
*582 dut\.fifo\.ram\[6\]\[4\]
*583 dut\.fifo\.ram\[6\]\[5\]
*584 dut\.fifo\.ram\[6\]\[6\]
*585 dut\.fifo\.ram\[6\]\[7\]
*586 dut\.fifo\.ram\[7\]\[0\]
*587 dut\.fifo\.ram\[7\]\[1\]
*588 dut\.fifo\.ram\[7\]\[2\]
*589 dut\.fifo\.ram\[7\]\[3\]
*590 dut\.fifo\.ram\[7\]\[4\]
*591 dut\.fifo\.ram\[7\]\[5\]
*592 dut\.fifo\.ram\[7\]\[6\]
*593 dut\.fifo\.ram\[7\]\[7\]
*594 dut\.fifo\.rd_ptr\[0\]
*595 dut\.fifo\.rd_ptr\[1\]
*596 dut\.fifo\.rd_ptr\[2\]
*597 dut\.fifo\.wr_ptr\[0\]
*598 dut\.fifo\.wr_ptr\[1\]
*599 dut\.fifo\.wr_ptr\[2\]
*600 dut\.state\[0\]
*601 dut\.state\[1\]
*602 dut\.state\[2\]
*603 dut\.state\[3\]
*604 dut\.state\[4\]
*605 dut\.state\[5\]
*606 dut\.state\[6\]
*607 dut\.state\[7\]
*608 dut\.state\[8\]
*609 dut\.state\[9\]
*610 dut\.tx
*611 dut\.urx\.counter\[0\]
*612 dut\.urx\.counter\[1\]
*613 dut\.urx\.counter\[2\]
*614 dut\.urx\.counter\[3\]
*615 dut\.urx\.counter\[4\]
*616 dut\.urx\.counter\[5\]
*617 dut\.urx\.counter\[6\]
*618 dut\.urx\.counter\[7\]
*619 dut\.urx\.o_data\[0\]
*620 dut\.urx\.o_data\[1\]
*621 dut\.urx\.o_data\[2\]
*622 dut\.urx\.o_data\[3\]
*623 dut\.urx\.o_data\[4\]
*624 dut\.urx\.o_data\[5\]
*625 dut\.urx\.o_data\[6\]
*626 dut\.urx\.o_data\[7\]
*627 dut\.urx\.o_valid
*628 dut\.urx\.state\[0\]
*629 dut\.urx\.state\[1\]
*630 dut\.urx\.state\[2\]
*631 dut\.urx\.state\[3\]
*632 dut\.utx\.counter\[0\]
*633 dut\.utx\.counter\[1\]
*634 dut\.utx\.counter\[2\]
*635 dut\.utx\.counter\[3\]
*636 dut\.utx\.counter\[4\]
*637 dut\.utx\.counter\[5\]
*638 dut\.utx\.counter\[6\]
*639 dut\.utx\.counter\[7\]
*640 dut\.utx\.data_send\[0\]
*641 dut\.utx\.data_send\[1\]
*642 dut\.utx\.data_send\[2\]
*643 dut\.utx\.data_send\[3\]
*644 dut\.utx\.data_send\[4\]
*645 dut\.utx\.data_send\[5\]
*646 dut\.utx\.data_send\[6\]
*647 dut\.utx\.data_send\[7\]
*648 dut\.utx\.state\[0\]
*649 dut\.utx\.state\[1\]
*650 dut\.utx\.state\[2\]
*651 dut\.utx\.state\[3\]
*652 net1
*653 net100
*654 net101
*655 net102
*656 net103
*657 net104
*658 net105
*659 net106
*660 net107
*661 net108
*662 net109
*663 net110
*664 net111
*665 net112
*666 net113
*667 net114
*668 net115
*669 net116
*670 net117
*671 net118
*672 net119
*673 net120
*674 net121
*675 net122
*676 net123
*677 net124
*678 net125
*679 net126
*680 net127
*681 net128
*682 net2
*683 net29
*684 net3
*685 net30
*686 net31
*687 net32
*688 net33
*689 net34
*690 net35
*691 net36
*692 net37
*693 net38
*694 net39
*695 net4
*696 net40
*697 net41
*698 net42
*699 net43
*700 net44
*701 net45
*702 net46
*703 net47
*704 net48
*705 net49
*706 net5
*707 net50
*708 net51
*709 net52
*710 net53
*711 net54
*712 net55
*713 net56
*714 net57
*715 net58
*716 net59
*717 net60
*718 net61
*719 net62
*720 net63
*721 net64
*722 net65
*723 net66
*724 net67
*725 net68
*726 net69
*727 net70
*728 net71
*729 net72
*730 net73
*731 net74
*732 net75
*733 net76
*734 net77
*735 net78
*736 net79
*737 net80
*738 net81
*739 net82
*740 net83
*741 net84
*742 net85
*743 net86
*744 net87
*745 net88
*746 net89
*747 net90
*748 net91
*749 net92
*750 net93
*751 net94
*752 net95
*753 net96
*754 net97
*755 net98
*756 net99
*757 ANTENNA_1
*758 FILLER_0_0_109
*759 FILLER_0_0_113
*760 FILLER_0_0_125
*761 FILLER_0_0_137
*762 FILLER_0_0_141
*763 FILLER_0_0_15
*764 FILLER_0_0_153
*765 FILLER_0_0_165
*766 FILLER_0_0_169
*767 FILLER_0_0_181
*768 FILLER_0_0_193
*769 FILLER_0_0_197
*770 FILLER_0_0_209
*771 FILLER_0_0_221
*772 FILLER_0_0_225
*773 FILLER_0_0_237
*774 FILLER_0_0_249
*775 FILLER_0_0_253
*776 FILLER_0_0_265
*777 FILLER_0_0_27
*778 FILLER_0_0_277
*779 FILLER_0_0_281
*780 FILLER_0_0_29
*781 FILLER_0_0_293
*782 FILLER_0_0_3
*783 FILLER_0_0_305
*784 FILLER_0_0_309
*785 FILLER_0_0_321
*786 FILLER_0_0_333
*787 FILLER_0_0_337
*788 FILLER_0_0_349
*789 FILLER_0_0_41
*790 FILLER_0_0_53
*791 FILLER_0_0_57
*792 FILLER_0_0_69
*793 FILLER_0_0_81
*794 FILLER_0_0_85
*795 FILLER_0_0_97
*796 FILLER_0_10_106
*797 FILLER_0_10_133
*798 FILLER_0_10_139
*799 FILLER_0_10_149
*800 FILLER_0_10_15
*801 FILLER_0_10_157
*802 FILLER_0_10_175
*803 FILLER_0_10_187
*804 FILLER_0_10_19
*805 FILLER_0_10_221
*806 FILLER_0_10_233
*807 FILLER_0_10_239
*808 FILLER_0_10_253
*809 FILLER_0_10_265
*810 FILLER_0_10_277
*811 FILLER_0_10_289
*812 FILLER_0_10_3
*813 FILLER_0_10_301
*814 FILLER_0_10_307
*815 FILLER_0_10_309
*816 FILLER_0_10_321
*817 FILLER_0_10_333
*818 FILLER_0_10_345
*819 FILLER_0_10_41
*820 FILLER_0_10_53
*821 FILLER_0_10_57
*822 FILLER_0_10_77
*823 FILLER_0_10_83
*824 FILLER_0_10_94
*825 FILLER_0_11_104
*826 FILLER_0_11_11
*827 FILLER_0_11_116
*828 FILLER_0_11_128
*829 FILLER_0_11_141
*830 FILLER_0_11_177
*831 FILLER_0_11_183
*832 FILLER_0_11_225
*833 FILLER_0_11_271
*834 FILLER_0_11_279
*835 FILLER_0_11_281
*836 FILLER_0_11_293
*837 FILLER_0_11_3
*838 FILLER_0_11_305
*839 FILLER_0_11_317
*840 FILLER_0_11_329
*841 FILLER_0_11_335
*842 FILLER_0_11_337
*843 FILLER_0_11_349
*844 FILLER_0_11_54
*845 FILLER_0_11_57
*846 FILLER_0_12_102
*847 FILLER_0_12_11
*848 FILLER_0_12_110
*849 FILLER_0_12_144
*850 FILLER_0_12_182
*851 FILLER_0_12_194
*852 FILLER_0_12_223
*853 FILLER_0_12_235
*854 FILLER_0_12_241
*855 FILLER_0_12_251
*856 FILLER_0_12_261
*857 FILLER_0_12_273
*858 FILLER_0_12_285
*859 FILLER_0_12_297
*860 FILLER_0_12_3
*861 FILLER_0_12_305
*862 FILLER_0_12_309
*863 FILLER_0_12_321
*864 FILLER_0_12_333
*865 FILLER_0_12_345
*866 FILLER_0_12_41
*867 FILLER_0_12_55
*868 FILLER_0_12_94
*869 FILLER_0_12_98
*870 FILLER_0_13_129
*871 FILLER_0_13_133
*872 FILLER_0_13_167
*873 FILLER_0_13_180
*874 FILLER_0_13_184
*875 FILLER_0_13_202
*876 FILLER_0_13_220
*877 FILLER_0_13_231
*878 FILLER_0_13_240
*879 FILLER_0_13_244
*880 FILLER_0_13_251
*881 FILLER_0_13_255
*882 FILLER_0_13_281
*883 FILLER_0_13_293
*884 FILLER_0_13_3
*885 FILLER_0_13_305
*886 FILLER_0_13_317
*887 FILLER_0_13_329
*888 FILLER_0_13_335
*889 FILLER_0_13_337
*890 FILLER_0_13_349
*891 FILLER_0_13_46
*892 FILLER_0_13_54
*893 FILLER_0_13_57
*894 FILLER_0_13_79
*895 FILLER_0_14_101
*896 FILLER_0_14_135
*897 FILLER_0_14_139
*898 FILLER_0_14_141
*899 FILLER_0_14_15
*900 FILLER_0_14_173
*901 FILLER_0_14_185
*902 FILLER_0_14_193
*903 FILLER_0_14_197
*904 FILLER_0_14_201
*905 FILLER_0_14_22
*906 FILLER_0_14_238
*907 FILLER_0_14_278
*908 FILLER_0_14_290
*909 FILLER_0_14_3
*910 FILLER_0_14_302
*911 FILLER_0_14_309
*912 FILLER_0_14_321
*913 FILLER_0_14_333
*914 FILLER_0_14_345
*915 FILLER_0_14_54
*916 FILLER_0_15_11
*917 FILLER_0_15_116
*918 FILLER_0_15_129
*919 FILLER_0_15_141
*920 FILLER_0_15_167
*921 FILLER_0_15_185
*922 FILLER_0_15_197
*923 FILLER_0_15_221
*924 FILLER_0_15_246
*925 FILLER_0_15_256
*926 FILLER_0_15_278
*927 FILLER_0_15_281
*928 FILLER_0_15_293
*929 FILLER_0_15_3
*930 FILLER_0_15_305
*931 FILLER_0_15_317
*932 FILLER_0_15_329
*933 FILLER_0_15_335
*934 FILLER_0_15_337
*935 FILLER_0_15_349
*936 FILLER_0_15_50
*937 FILLER_0_15_66
*938 FILLER_0_16_11
*939 FILLER_0_16_130
*940 FILLER_0_16_138
*941 FILLER_0_16_141
*942 FILLER_0_16_197
*943 FILLER_0_16_205
*944 FILLER_0_16_235
*945 FILLER_0_16_243
*946 FILLER_0_16_253
*947 FILLER_0_16_284
*948 FILLER_0_16_290
*949 FILLER_0_16_3
*950 FILLER_0_16_307
*951 FILLER_0_16_309
*952 FILLER_0_16_32
*953 FILLER_0_16_321
*954 FILLER_0_16_333
*955 FILLER_0_16_345
*956 FILLER_0_16_70
*957 FILLER_0_16_91
*958 FILLER_0_17_102
*959 FILLER_0_17_130
*960 FILLER_0_17_164
*961 FILLER_0_17_186
*962 FILLER_0_17_223
*963 FILLER_0_17_273
*964 FILLER_0_17_279
*965 FILLER_0_17_281
*966 FILLER_0_17_3
*967 FILLER_0_17_306
*968 FILLER_0_17_318
*969 FILLER_0_17_337
*970 FILLER_0_17_349
*971 FILLER_0_17_44
*972 FILLER_0_17_49
*973 FILLER_0_17_55
*974 FILLER_0_18_127
*975 FILLER_0_18_139
*976 FILLER_0_18_141
*977 FILLER_0_18_176
*978 FILLER_0_18_195
*979 FILLER_0_18_236
*980 FILLER_0_18_242
*981 FILLER_0_18_250
*982 FILLER_0_18_27
*983 FILLER_0_18_270
*984 FILLER_0_18_29
*985 FILLER_0_18_293
*986 FILLER_0_18_3
*987 FILLER_0_18_307
*988 FILLER_0_18_309
*989 FILLER_0_18_340
*990 FILLER_0_18_348
*991 FILLER_0_18_7
*992 FILLER_0_18_82
*993 FILLER_0_18_94
*994 FILLER_0_18_98
*995 FILLER_0_19_113
*996 FILLER_0_19_119
*997 FILLER_0_19_136
*998 FILLER_0_19_147
*999 FILLER_0_19_15
*1000 FILLER_0_19_163
*1001 FILLER_0_19_167
*1002 FILLER_0_19_169
*1003 FILLER_0_19_177
*1004 FILLER_0_19_19
*1005 FILLER_0_19_239
*1006 FILLER_0_19_248
*1007 FILLER_0_19_260
*1008 FILLER_0_19_279
*1009 FILLER_0_19_295
*1010 FILLER_0_19_3
*1011 FILLER_0_19_324
*1012 FILLER_0_19_347
*1013 FILLER_0_19_46
*1014 FILLER_0_19_54
*1015 FILLER_0_19_65
*1016 FILLER_0_19_77
*1017 FILLER_0_19_89
*1018 FILLER_0_1_105
*1019 FILLER_0_1_111
*1020 FILLER_0_1_113
*1021 FILLER_0_1_125
*1022 FILLER_0_1_137
*1023 FILLER_0_1_149
*1024 FILLER_0_1_15
*1025 FILLER_0_1_161
*1026 FILLER_0_1_167
*1027 FILLER_0_1_169
*1028 FILLER_0_1_181
*1029 FILLER_0_1_193
*1030 FILLER_0_1_205
*1031 FILLER_0_1_217
*1032 FILLER_0_1_223
*1033 FILLER_0_1_225
*1034 FILLER_0_1_237
*1035 FILLER_0_1_249
*1036 FILLER_0_1_261
*1037 FILLER_0_1_27
*1038 FILLER_0_1_273
*1039 FILLER_0_1_279
*1040 FILLER_0_1_281
*1041 FILLER_0_1_293
*1042 FILLER_0_1_3
*1043 FILLER_0_1_305
*1044 FILLER_0_1_317
*1045 FILLER_0_1_329
*1046 FILLER_0_1_335
*1047 FILLER_0_1_337
*1048 FILLER_0_1_349
*1049 FILLER_0_1_39
*1050 FILLER_0_1_51
*1051 FILLER_0_1_55
*1052 FILLER_0_1_57
*1053 FILLER_0_1_69
*1054 FILLER_0_1_81
*1055 FILLER_0_1_93
*1056 FILLER_0_20_118
*1057 FILLER_0_20_144
*1058 FILLER_0_20_15
*1059 FILLER_0_20_166
*1060 FILLER_0_20_178
*1061 FILLER_0_20_186
*1062 FILLER_0_20_192
*1063 FILLER_0_20_219
*1064 FILLER_0_20_247
*1065 FILLER_0_20_251
*1066 FILLER_0_20_263
*1067 FILLER_0_20_27
*1068 FILLER_0_20_275
*1069 FILLER_0_20_279
*1070 FILLER_0_20_283
*1071 FILLER_0_20_290
*1072 FILLER_0_20_3
*1073 FILLER_0_20_307
*1074 FILLER_0_20_314
*1075 FILLER_0_20_326
*1076 FILLER_0_20_53
*1077 FILLER_0_20_65
*1078 FILLER_0_20_85
*1079 FILLER_0_21_122
*1080 FILLER_0_21_143
*1081 FILLER_0_21_15
*1082 FILLER_0_21_161
*1083 FILLER_0_21_167
*1084 FILLER_0_21_169
*1085 FILLER_0_21_174
*1086 FILLER_0_21_191
*1087 FILLER_0_21_198
*1088 FILLER_0_21_21
*1089 FILLER_0_21_210
*1090 FILLER_0_21_233
*1091 FILLER_0_21_250
*1092 FILLER_0_21_262
*1093 FILLER_0_21_274
*1094 FILLER_0_21_3
*1095 FILLER_0_21_305
*1096 FILLER_0_21_317
*1097 FILLER_0_21_345
*1098 FILLER_0_21_41
*1099 FILLER_0_21_95
*1100 FILLER_0_22_100
*1101 FILLER_0_22_106
*1102 FILLER_0_22_132
*1103 FILLER_0_22_141
*1104 FILLER_0_22_15
*1105 FILLER_0_22_207
*1106 FILLER_0_22_232
*1107 FILLER_0_22_256
*1108 FILLER_0_22_268
*1109 FILLER_0_22_27
*1110 FILLER_0_22_276
*1111 FILLER_0_22_281
*1112 FILLER_0_22_3
*1113 FILLER_0_22_305
*1114 FILLER_0_22_309
*1115 FILLER_0_22_324
*1116 FILLER_0_22_329
*1117 FILLER_0_22_346
*1118 FILLER_0_22_350
*1119 FILLER_0_22_65
*1120 FILLER_0_22_69
*1121 FILLER_0_22_82
*1122 FILLER_0_22_88
*1123 FILLER_0_23_102
*1124 FILLER_0_23_137
*1125 FILLER_0_23_149
*1126 FILLER_0_23_15
*1127 FILLER_0_23_164
*1128 FILLER_0_23_169
*1129 FILLER_0_23_208
*1130 FILLER_0_23_220
*1131 FILLER_0_23_225
*1132 FILLER_0_23_253
*1133 FILLER_0_23_265
*1134 FILLER_0_23_27
*1135 FILLER_0_23_281
*1136 FILLER_0_23_295
*1137 FILLER_0_23_3
*1138 FILLER_0_23_317
*1139 FILLER_0_23_328
*1140 FILLER_0_23_332
*1141 FILLER_0_23_337
*1142 FILLER_0_23_349
*1143 FILLER_0_23_47
*1144 FILLER_0_23_55
*1145 FILLER_0_23_57
*1146 FILLER_0_23_93
*1147 FILLER_0_24_104
*1148 FILLER_0_24_127
*1149 FILLER_0_24_138
*1150 FILLER_0_24_146
*1151 FILLER_0_24_15
*1152 FILLER_0_24_164
*1153 FILLER_0_24_170
*1154 FILLER_0_24_195
*1155 FILLER_0_24_202
*1156 FILLER_0_24_214
*1157 FILLER_0_24_226
*1158 FILLER_0_24_234
*1159 FILLER_0_24_253
*1160 FILLER_0_24_265
*1161 FILLER_0_24_269
*1162 FILLER_0_24_27
*1163 FILLER_0_24_29
*1164 FILLER_0_24_3
*1165 FILLER_0_24_301
*1166 FILLER_0_24_307
*1167 FILLER_0_24_337
*1168 FILLER_0_24_349
*1169 FILLER_0_24_41
*1170 FILLER_0_24_53
*1171 FILLER_0_24_81
*1172 FILLER_0_25_111
*1173 FILLER_0_25_113
*1174 FILLER_0_25_128
*1175 FILLER_0_25_15
*1176 FILLER_0_25_166
*1177 FILLER_0_25_169
*1178 FILLER_0_25_198
*1179 FILLER_0_25_210
*1180 FILLER_0_25_216
*1181 FILLER_0_25_232
*1182 FILLER_0_25_246
*1183 FILLER_0_25_269
*1184 FILLER_0_25_27
*1185 FILLER_0_25_273
*1186 FILLER_0_25_3
*1187 FILLER_0_25_327
*1188 FILLER_0_25_335
*1189 FILLER_0_25_337
*1190 FILLER_0_25_349
*1191 FILLER_0_25_39
*1192 FILLER_0_25_51
*1193 FILLER_0_25_82
*1194 FILLER_0_25_86
*1195 FILLER_0_26_109
*1196 FILLER_0_26_127
*1197 FILLER_0_26_138
*1198 FILLER_0_26_141
*1199 FILLER_0_26_15
*1200 FILLER_0_26_161
*1201 FILLER_0_26_197
*1202 FILLER_0_26_241
*1203 FILLER_0_26_249
*1204 FILLER_0_26_253
*1205 FILLER_0_26_265
*1206 FILLER_0_26_269
*1207 FILLER_0_26_27
*1208 FILLER_0_26_29
*1209 FILLER_0_26_3
*1210 FILLER_0_26_300
*1211 FILLER_0_26_314
*1212 FILLER_0_26_322
*1213 FILLER_0_26_329
*1214 FILLER_0_26_346
*1215 FILLER_0_26_350
*1216 FILLER_0_26_41
*1217 FILLER_0_26_53
*1218 FILLER_0_26_64
*1219 FILLER_0_26_85
*1220 FILLER_0_27_118
*1221 FILLER_0_27_140
*1222 FILLER_0_27_15
*1223 FILLER_0_27_161
*1224 FILLER_0_27_187
*1225 FILLER_0_27_199
*1226 FILLER_0_27_206
*1227 FILLER_0_27_210
*1228 FILLER_0_27_245
*1229 FILLER_0_27_257
*1230 FILLER_0_27_27
*1231 FILLER_0_27_275
*1232 FILLER_0_27_279
*1233 FILLER_0_27_281
*1234 FILLER_0_27_289
*1235 FILLER_0_27_296
*1236 FILLER_0_27_3
*1237 FILLER_0_27_308
*1238 FILLER_0_27_316
*1239 FILLER_0_27_340
*1240 FILLER_0_27_348
*1241 FILLER_0_27_39
*1242 FILLER_0_27_51
*1243 FILLER_0_27_55
*1244 FILLER_0_27_57
*1245 FILLER_0_27_69
*1246 FILLER_0_28_102
*1247 FILLER_0_28_123
*1248 FILLER_0_28_136
*1249 FILLER_0_28_141
*1250 FILLER_0_28_15
*1251 FILLER_0_28_159
*1252 FILLER_0_28_171
*1253 FILLER_0_28_183
*1254 FILLER_0_28_187
*1255 FILLER_0_28_197
*1256 FILLER_0_28_223
*1257 FILLER_0_28_231
*1258 FILLER_0_28_240
*1259 FILLER_0_28_250
*1260 FILLER_0_28_27
*1261 FILLER_0_28_29
*1262 FILLER_0_28_3
*1263 FILLER_0_28_301
*1264 FILLER_0_28_307
*1265 FILLER_0_28_346
*1266 FILLER_0_28_350
*1267 FILLER_0_28_41
*1268 FILLER_0_28_53
*1269 FILLER_0_28_65
*1270 FILLER_0_28_77
*1271 FILLER_0_28_83
*1272 FILLER_0_28_85
*1273 FILLER_0_29_105
*1274 FILLER_0_29_134
*1275 FILLER_0_29_142
*1276 FILLER_0_29_15
*1277 FILLER_0_29_167
*1278 FILLER_0_29_172
*1279 FILLER_0_29_178
*1280 FILLER_0_29_182
*1281 FILLER_0_29_186
*1282 FILLER_0_29_198
*1283 FILLER_0_29_217
*1284 FILLER_0_29_223
*1285 FILLER_0_29_228
*1286 FILLER_0_29_240
*1287 FILLER_0_29_252
*1288 FILLER_0_29_264
*1289 FILLER_0_29_268
*1290 FILLER_0_29_27
*1291 FILLER_0_29_3
*1292 FILLER_0_29_314
*1293 FILLER_0_29_335
*1294 FILLER_0_29_337
*1295 FILLER_0_29_349
*1296 FILLER_0_29_39
*1297 FILLER_0_29_51
*1298 FILLER_0_29_55
*1299 FILLER_0_29_57
*1300 FILLER_0_29_69
*1301 FILLER_0_29_81
*1302 FILLER_0_29_93
*1303 FILLER_0_2_109
*1304 FILLER_0_2_121
*1305 FILLER_0_2_133
*1306 FILLER_0_2_139
*1307 FILLER_0_2_141
*1308 FILLER_0_2_15
*1309 FILLER_0_2_153
*1310 FILLER_0_2_165
*1311 FILLER_0_2_177
*1312 FILLER_0_2_189
*1313 FILLER_0_2_195
*1314 FILLER_0_2_197
*1315 FILLER_0_2_209
*1316 FILLER_0_2_221
*1317 FILLER_0_2_233
*1318 FILLER_0_2_245
*1319 FILLER_0_2_251
*1320 FILLER_0_2_253
*1321 FILLER_0_2_265
*1322 FILLER_0_2_27
*1323 FILLER_0_2_277
*1324 FILLER_0_2_289
*1325 FILLER_0_2_29
*1326 FILLER_0_2_3
*1327 FILLER_0_2_301
*1328 FILLER_0_2_307
*1329 FILLER_0_2_309
*1330 FILLER_0_2_321
*1331 FILLER_0_2_333
*1332 FILLER_0_2_345
*1333 FILLER_0_2_41
*1334 FILLER_0_2_53
*1335 FILLER_0_2_65
*1336 FILLER_0_2_77
*1337 FILLER_0_2_83
*1338 FILLER_0_2_85
*1339 FILLER_0_2_97
*1340 FILLER_0_30_126
*1341 FILLER_0_30_139
*1342 FILLER_0_30_144
*1343 FILLER_0_30_15
*1344 FILLER_0_30_170
*1345 FILLER_0_30_188
*1346 FILLER_0_30_197
*1347 FILLER_0_30_205
*1348 FILLER_0_30_240
*1349 FILLER_0_30_253
*1350 FILLER_0_30_261
*1351 FILLER_0_30_27
*1352 FILLER_0_30_280
*1353 FILLER_0_30_29
*1354 FILLER_0_30_3
*1355 FILLER_0_30_306
*1356 FILLER_0_30_346
*1357 FILLER_0_30_350
*1358 FILLER_0_30_41
*1359 FILLER_0_30_53
*1360 FILLER_0_30_65
*1361 FILLER_0_30_77
*1362 FILLER_0_30_83
*1363 FILLER_0_30_85
*1364 FILLER_0_31_105
*1365 FILLER_0_31_138
*1366 FILLER_0_31_15
*1367 FILLER_0_31_150
*1368 FILLER_0_31_169
*1369 FILLER_0_31_185
*1370 FILLER_0_31_197
*1371 FILLER_0_31_205
*1372 FILLER_0_31_245
*1373 FILLER_0_31_257
*1374 FILLER_0_31_27
*1375 FILLER_0_31_279
*1376 FILLER_0_31_3
*1377 FILLER_0_31_305
*1378 FILLER_0_31_334
*1379 FILLER_0_31_337
*1380 FILLER_0_31_349
*1381 FILLER_0_31_39
*1382 FILLER_0_31_51
*1383 FILLER_0_31_55
*1384 FILLER_0_31_57
*1385 FILLER_0_31_69
*1386 FILLER_0_31_81
*1387 FILLER_0_31_93
*1388 FILLER_0_32_109
*1389 FILLER_0_32_121
*1390 FILLER_0_32_127
*1391 FILLER_0_32_139
*1392 FILLER_0_32_141
*1393 FILLER_0_32_15
*1394 FILLER_0_32_153
*1395 FILLER_0_32_165
*1396 FILLER_0_32_193
*1397 FILLER_0_32_206
*1398 FILLER_0_32_240
*1399 FILLER_0_32_253
*1400 FILLER_0_32_265
*1401 FILLER_0_32_27
*1402 FILLER_0_32_277
*1403 FILLER_0_32_29
*1404 FILLER_0_32_299
*1405 FILLER_0_32_3
*1406 FILLER_0_32_323
*1407 FILLER_0_32_335
*1408 FILLER_0_32_347
*1409 FILLER_0_32_41
*1410 FILLER_0_32_53
*1411 FILLER_0_32_65
*1412 FILLER_0_32_77
*1413 FILLER_0_32_83
*1414 FILLER_0_32_85
*1415 FILLER_0_32_97
*1416 FILLER_0_33_105
*1417 FILLER_0_33_111
*1418 FILLER_0_33_113
*1419 FILLER_0_33_117
*1420 FILLER_0_33_133
*1421 FILLER_0_33_145
*1422 FILLER_0_33_15
*1423 FILLER_0_33_157
*1424 FILLER_0_33_185
*1425 FILLER_0_33_195
*1426 FILLER_0_33_207
*1427 FILLER_0_33_219
*1428 FILLER_0_33_223
*1429 FILLER_0_33_231
*1430 FILLER_0_33_243
*1431 FILLER_0_33_263
*1432 FILLER_0_33_27
*1433 FILLER_0_33_275
*1434 FILLER_0_33_279
*1435 FILLER_0_33_289
*1436 FILLER_0_33_3
*1437 FILLER_0_33_301
*1438 FILLER_0_33_315
*1439 FILLER_0_33_337
*1440 FILLER_0_33_349
*1441 FILLER_0_33_39
*1442 FILLER_0_33_51
*1443 FILLER_0_33_55
*1444 FILLER_0_33_57
*1445 FILLER_0_33_69
*1446 FILLER_0_33_81
*1447 FILLER_0_33_93
*1448 FILLER_0_34_135
*1449 FILLER_0_34_139
*1450 FILLER_0_34_141
*1451 FILLER_0_34_15
*1452 FILLER_0_34_153
*1453 FILLER_0_34_189
*1454 FILLER_0_34_195
*1455 FILLER_0_34_197
*1456 FILLER_0_34_209
*1457 FILLER_0_34_219
*1458 FILLER_0_34_232
*1459 FILLER_0_34_248
*1460 FILLER_0_34_257
*1461 FILLER_0_34_269
*1462 FILLER_0_34_27
*1463 FILLER_0_34_29
*1464 FILLER_0_34_3
*1465 FILLER_0_34_334
*1466 FILLER_0_34_346
*1467 FILLER_0_34_350
*1468 FILLER_0_34_41
*1469 FILLER_0_34_53
*1470 FILLER_0_34_65
*1471 FILLER_0_34_77
*1472 FILLER_0_34_83
*1473 FILLER_0_34_85
*1474 FILLER_0_34_93
*1475 FILLER_0_35_105
*1476 FILLER_0_35_111
*1477 FILLER_0_35_113
*1478 FILLER_0_35_146
*1479 FILLER_0_35_15
*1480 FILLER_0_35_189
*1481 FILLER_0_35_201
*1482 FILLER_0_35_223
*1483 FILLER_0_35_225
*1484 FILLER_0_35_244
*1485 FILLER_0_35_252
*1486 FILLER_0_35_27
*1487 FILLER_0_35_279
*1488 FILLER_0_35_284
*1489 FILLER_0_35_296
*1490 FILLER_0_35_3
*1491 FILLER_0_35_304
*1492 FILLER_0_35_310
*1493 FILLER_0_35_335
*1494 FILLER_0_35_337
*1495 FILLER_0_35_349
*1496 FILLER_0_35_39
*1497 FILLER_0_35_51
*1498 FILLER_0_35_55
*1499 FILLER_0_35_57
*1500 FILLER_0_35_69
*1501 FILLER_0_35_81
*1502 FILLER_0_35_93
*1503 FILLER_0_36_109
*1504 FILLER_0_36_117
*1505 FILLER_0_36_138
*1506 FILLER_0_36_141
*1507 FILLER_0_36_15
*1508 FILLER_0_36_153
*1509 FILLER_0_36_176
*1510 FILLER_0_36_190
*1511 FILLER_0_36_197
*1512 FILLER_0_36_217
*1513 FILLER_0_36_235
*1514 FILLER_0_36_243
*1515 FILLER_0_36_268
*1516 FILLER_0_36_27
*1517 FILLER_0_36_276
*1518 FILLER_0_36_29
*1519 FILLER_0_36_3
*1520 FILLER_0_36_300
*1521 FILLER_0_36_309
*1522 FILLER_0_36_328
*1523 FILLER_0_36_345
*1524 FILLER_0_36_41
*1525 FILLER_0_36_53
*1526 FILLER_0_36_65
*1527 FILLER_0_36_77
*1528 FILLER_0_36_83
*1529 FILLER_0_36_85
*1530 FILLER_0_36_97
*1531 FILLER_0_37_105
*1532 FILLER_0_37_111
*1533 FILLER_0_37_113
*1534 FILLER_0_37_117
*1535 FILLER_0_37_137
*1536 FILLER_0_37_149
*1537 FILLER_0_37_15
*1538 FILLER_0_37_157
*1539 FILLER_0_37_185
*1540 FILLER_0_37_197
*1541 FILLER_0_37_225
*1542 FILLER_0_37_240
*1543 FILLER_0_37_27
*1544 FILLER_0_37_278
*1545 FILLER_0_37_297
*1546 FILLER_0_37_3
*1547 FILLER_0_37_309
*1548 FILLER_0_37_343
*1549 FILLER_0_37_39
*1550 FILLER_0_37_51
*1551 FILLER_0_37_55
*1552 FILLER_0_37_57
*1553 FILLER_0_37_69
*1554 FILLER_0_37_81
*1555 FILLER_0_37_93
*1556 FILLER_0_38_104
*1557 FILLER_0_38_110
*1558 FILLER_0_38_116
*1559 FILLER_0_38_122
*1560 FILLER_0_38_128
*1561 FILLER_0_38_134
*1562 FILLER_0_38_15
*1563 FILLER_0_38_158
*1564 FILLER_0_38_164
*1565 FILLER_0_38_172
*1566 FILLER_0_38_176
*1567 FILLER_0_38_184
*1568 FILLER_0_38_188
*1569 FILLER_0_38_194
*1570 FILLER_0_38_200
*1571 FILLER_0_38_206
*1572 FILLER_0_38_218
*1573 FILLER_0_38_225
*1574 FILLER_0_38_237
*1575 FILLER_0_38_249
*1576 FILLER_0_38_253
*1577 FILLER_0_38_262
*1578 FILLER_0_38_27
*1579 FILLER_0_38_274
*1580 FILLER_0_38_285
*1581 FILLER_0_38_29
*1582 FILLER_0_38_297
*1583 FILLER_0_38_3
*1584 FILLER_0_38_309
*1585 FILLER_0_38_317
*1586 FILLER_0_38_337
*1587 FILLER_0_38_349
*1588 FILLER_0_38_41
*1589 FILLER_0_38_53
*1590 FILLER_0_38_57
*1591 FILLER_0_38_68
*1592 FILLER_0_38_74
*1593 FILLER_0_38_80
*1594 FILLER_0_38_88
*1595 FILLER_0_38_92
*1596 FILLER_0_38_98
*1597 FILLER_0_3_105
*1598 FILLER_0_3_111
*1599 FILLER_0_3_113
*1600 FILLER_0_3_125
*1601 FILLER_0_3_137
*1602 FILLER_0_3_149
*1603 FILLER_0_3_15
*1604 FILLER_0_3_161
*1605 FILLER_0_3_167
*1606 FILLER_0_3_169
*1607 FILLER_0_3_181
*1608 FILLER_0_3_193
*1609 FILLER_0_3_205
*1610 FILLER_0_3_217
*1611 FILLER_0_3_223
*1612 FILLER_0_3_225
*1613 FILLER_0_3_237
*1614 FILLER_0_3_249
*1615 FILLER_0_3_261
*1616 FILLER_0_3_27
*1617 FILLER_0_3_273
*1618 FILLER_0_3_279
*1619 FILLER_0_3_281
*1620 FILLER_0_3_293
*1621 FILLER_0_3_3
*1622 FILLER_0_3_305
*1623 FILLER_0_3_317
*1624 FILLER_0_3_329
*1625 FILLER_0_3_335
*1626 FILLER_0_3_337