*SPEF "ieee 1481-1999"
*DESIGN "tt_um_lif"
*DATE "11:11:11 Fri 11 11, 1111"
*VENDOR "OpenRCX"
*PROGRAM "Parallel Extraction"
*VERSION "1.0"
*DESIGN_FLOW "NAME_SCOPE LOCAL" "PIN_CAP NONE"
*DIVIDER /
*DELIMITER :
*BUS_DELIMITER []
*T_UNIT 1 NS
*C_UNIT 1 PF
*R_UNIT 1 OHM
*L_UNIT 1 HENRY

*NAME_MAP
*3 clk
*4 ena
*5 rst_n
*6 ui_in[0]
*7 ui_in[1]
*8 ui_in[2]
*9 ui_in[3]
*10 ui_in[4]
*11 ui_in[5]
*12 ui_in[6]
*13 ui_in[7]
*14 uio_in[0]
*15 uio_in[1]
*16 uio_in[2]
*17 uio_in[3]
*18 uio_in[4]
*19 uio_in[5]
*20 uio_in[6]
*21 uio_in[7]
*22 net15
*23 net16
*24 net17
*25 net18
*26 net19
*27 net20
*28 net21
*29 net22
*30 net10
*31 net11
*32 net12
*33 net13
*34 net14
*35 uio_out[5]
*36 uio_out[6]
*37 uio_out[7]
*38 uo_out[0]
*39 uo_out[1]
*40 uo_out[2]
*41 uo_out[3]
*42 uo_out[4]
*43 uo_out[5]
*44 uo_out[6]
*45 uo_out[7]
*46 _000_
*47 _001_
*48 _002_
*49 _003_
*50 _004_
*51 _005_
*52 _006_
*53 _007_
*54 _008_
*55 _009_
*56 _010_
*57 _011_
*58 _012_
*59 _013_
*60 _014_
*61 _015_
*62 _016_
*63 _017_
*64 _018_
*65 _019_
*66 _020_
*67 _021_
*68 _022_
*69 _023_
*70 _024_
*71 _025_
*72 _026_
*73 _027_
*74 _028_
*75 _029_
*76 _030_
*77 _031_
*78 _032_
*79 _033_
*80 _034_
*81 _035_
*82 _036_
*83 _037_
*84 _038_
*85 _039_
*86 _040_
*87 _041_
*88 _042_
*89 _043_
*90 _044_
*91 _045_
*92 _046_
*93 _047_
*94 _048_
*95 _049_
*96 _050_
*97 _051_
*98 _052_
*99 _053_
*100 _054_
*101 _055_
*102 _056_
*103 _057_
*104 _058_
*105 _059_
*106 _060_
*107 _061_
*108 _062_
*109 _063_
*110 _064_
*111 _065_
*112 _066_
*113 _067_
*114 _068_
*115 _069_
*116 _070_
*117 _071_
*118 _072_
*119 _073_
*120 _074_
*121 _075_
*122 _076_
*123 _077_
*124 _078_
*125 _079_
*126 _080_
*127 _081_
*128 _082_
*129 _083_
*130 _084_
*131 _085_
*132 _086_
*133 clknet_0_clk
*134 clknet_1_0__leaf_clk
*135 clknet_1_1__leaf_clk
*136 lif1\.spike
*137 lif2\.next_state\[0\]
*138 lif2\.next_state\[1\]
*139 lif2\.next_state\[2\]
*140 lif2\.next_state\[3\]
*141 lif2\.next_state\[4\]
*142 lif2\.next_state\[5\]
*143 lif2\.next_state\[6\]
*144 lif2\.spike
*145 lif2\.state\[0\]
*146 lif3\.next_state\[0\]
*147 lif3\.next_state\[1\]
*148 lif3\.next_state\[2\]
*149 lif3\.next_state\[3\]
*150 lif3\.next_state\[4\]
*151 lif3\.next_state\[5\]
*152 lif3\.next_state\[6\]
*153 lif3\.spike
*154 lif3\.state\[0\]
*155 net1
*156 net2
*157 net23
*158 net24
*159 net25
*160 net26
*161 net27
*162 net28
*163 net29
*164 net3
*165 net30
*166 net31
*167 net32
*168 net33
*169 net34
*170 net35
*171 net36
*172 net4
*173 net5
*174 net6
*175 net7
*176 net8
*177 net9
*178 FILLER_0_0_109
*179 FILLER_0_0_113
*180 FILLER_0_0_125
*181 FILLER_0_0_137
*182 FILLER_0_0_141
*183 FILLER_0_0_15
*184 FILLER_0_0_153
*185 FILLER_0_0_165
*186 FILLER_0_0_169
*187 FILLER_0_0_181
*188 FILLER_0_0_193
*189 FILLER_0_0_197
*190 FILLER_0_0_209
*191 FILLER_0_0_221
*192 FILLER_0_0_225
*193 FILLER_0_0_237
*194 FILLER_0_0_249
*195 FILLER_0_0_253
*196 FILLER_0_0_265
*197 FILLER_0_0_27
*198 FILLER_0_0_277
*199 FILLER_0_0_281
*200 FILLER_0_0_29
*201 FILLER_0_0_293
*202 FILLER_0_0_3
*203 FILLER_0_0_305
*204 FILLER_0_0_309
*205 FILLER_0_0_321
*206 FILLER_0_0_333
*207 FILLER_0_0_337
*208 FILLER_0_0_349
*209 FILLER_0_0_41
*210 FILLER_0_0_53
*211 FILLER_0_0_57
*212 FILLER_0_0_69
*213 FILLER_0_0_81
*214 FILLER_0_0_85
*215 FILLER_0_0_97
*216 FILLER_0_10_109
*217 FILLER_0_10_121
*218 FILLER_0_10_133
*219 FILLER_0_10_139
*220 FILLER_0_10_141
*221 FILLER_0_10_15
*222 FILLER_0_10_153
*223 FILLER_0_10_165
*224 FILLER_0_10_177
*225 FILLER_0_10_189
*226 FILLER_0_10_195
*227 FILLER_0_10_197
*228 FILLER_0_10_209
*229 FILLER_0_10_221
*230 FILLER_0_10_233
*231 FILLER_0_10_245
*232 FILLER_0_10_251
*233 FILLER_0_10_253
*234 FILLER_0_10_265
*235 FILLER_0_10_27
*236 FILLER_0_10_277
*237 FILLER_0_10_289
*238 FILLER_0_10_29
*239 FILLER_0_10_3
*240 FILLER_0_10_301
*241 FILLER_0_10_307
*242 FILLER_0_10_309
*243 FILLER_0_10_321
*244 FILLER_0_10_333
*245 FILLER_0_10_345
*246 FILLER_0_10_41
*247 FILLER_0_10_53
*248 FILLER_0_10_65
*249 FILLER_0_10_77
*250 FILLER_0_10_83
*251 FILLER_0_10_85
*252 FILLER_0_10_97
*253 FILLER_0_11_105
*254 FILLER_0_11_111
*255 FILLER_0_11_113
*256 FILLER_0_11_125
*257 FILLER_0_11_137
*258 FILLER_0_11_149
*259 FILLER_0_11_15
*260 FILLER_0_11_161
*261 FILLER_0_11_167
*262 FILLER_0_11_169
*263 FILLER_0_11_181
*264 FILLER_0_11_193
*265 FILLER_0_11_205
*266 FILLER_0_11_217
*267 FILLER_0_11_223
*268 FILLER_0_11_225
*269 FILLER_0_11_237
*270 FILLER_0_11_249
*271 FILLER_0_11_261
*272 FILLER_0_11_27
*273 FILLER_0_11_273
*274 FILLER_0_11_279
*275 FILLER_0_11_281
*276 FILLER_0_11_293
*277 FILLER_0_11_3
*278 FILLER_0_11_305
*279 FILLER_0_11_317
*280 FILLER_0_11_329
*281 FILLER_0_11_335
*282 FILLER_0_11_337
*283 FILLER_0_11_349
*284 FILLER_0_11_39
*285 FILLER_0_11_51
*286 FILLER_0_11_55
*287 FILLER_0_11_57
*288 FILLER_0_11_69
*289 FILLER_0_11_81
*290 FILLER_0_11_93
*291 FILLER_0_12_109
*292 FILLER_0_12_121
*293 FILLER_0_12_133
*294 FILLER_0_12_139
*295 FILLER_0_12_141
*296 FILLER_0_12_15
*297 FILLER_0_12_153
*298 FILLER_0_12_165
*299 FILLER_0_12_177
*300 FILLER_0_12_189
*301 FILLER_0_12_195
*302 FILLER_0_12_197
*303 FILLER_0_12_209
*304 FILLER_0_12_221
*305 FILLER_0_12_233
*306 FILLER_0_12_245
*307 FILLER_0_12_251
*308 FILLER_0_12_253
*309 FILLER_0_12_265
*310 FILLER_0_12_27
*311 FILLER_0_12_277
*312 FILLER_0_12_289
*313 FILLER_0_12_29
*314 FILLER_0_12_3
*315 FILLER_0_12_301
*316 FILLER_0_12_307
*317 FILLER_0_12_309
*318 FILLER_0_12_321
*319 FILLER_0_12_333
*320 FILLER_0_12_345
*321 FILLER_0_12_41
*322 FILLER_0_12_53
*323 FILLER_0_12_65
*324 FILLER_0_12_77
*325 FILLER_0_12_83
*326 FILLER_0_12_85
*327 FILLER_0_12_97
*328 FILLER_0_13_105
*329 FILLER_0_13_111
*330 FILLER_0_13_113
*331 FILLER_0_13_125
*332 FILLER_0_13_137
*333 FILLER_0_13_149
*334 FILLER_0_13_15
*335 FILLER_0_13_161
*336 FILLER_0_13_167
*337 FILLER_0_13_169
*338 FILLER_0_13_181
*339 FILLER_0_13_193
*340 FILLER_0_13_205
*341 FILLER_0_13_217
*342 FILLER_0_13_223
*343 FILLER_0_13_225
*344 FILLER_0_13_237
*345 FILLER_0_13_249
*346 FILLER_0_13_261
*347 FILLER_0_13_27
*348 FILLER_0_13_273
*349 FILLER_0_13_279
*350 FILLER_0_13_281
*351 FILLER_0_13_293
*352 FILLER_0_13_3
*353 FILLER_0_13_305
*354 FILLER_0_13_317
*355 FILLER_0_13_329
*356 FILLER_0_13_335
*357 FILLER_0_13_337
*358 FILLER_0_13_349
*359 FILLER_0_13_39
*360 FILLER_0_13_51
*361 FILLER_0_13_55
*362 FILLER_0_13_57
*363 FILLER_0_13_69
*364 FILLER_0_13_81
*365 FILLER_0_13_93
*366 FILLER_0_14_109
*367 FILLER_0_14_121
*368 FILLER_0_14_133
*369 FILLER_0_14_139
*370 FILLER_0_14_141
*371 FILLER_0_14_15
*372 FILLER_0_14_153
*373 FILLER_0_14_165
*374 FILLER_0_14_177
*375 FILLER_0_14_189
*376 FILLER_0_14_195
*377 FILLER_0_14_197
*378 FILLER_0_14_209
*379 FILLER_0_14_221
*380 FILLER_0_14_233
*381 FILLER_0_14_245
*382 FILLER_0_14_251
*383 FILLER_0_14_253
*384 FILLER_0_14_265
*385 FILLER_0_14_27
*386 FILLER_0_14_277
*387 FILLER_0_14_289
*388 FILLER_0_14_29
*389 FILLER_0_14_3
*390 FILLER_0_14_301
*391 FILLER_0_14_307
*392 FILLER_0_14_309
*393 FILLER_0_14_321
*394 FILLER_0_14_333
*395 FILLER_0_14_345
*396 FILLER_0_14_41
*397 FILLER_0_14_53
*398 FILLER_0_14_65
*399 FILLER_0_14_77
*400 FILLER_0_14_83
*401 FILLER_0_14_85
*402 FILLER_0_14_97
*403 FILLER_0_15_105
*404 FILLER_0_15_111
*405 FILLER_0_15_113
*406 FILLER_0_15_125
*407 FILLER_0_15_137
*408 FILLER_0_15_149
*409 FILLER_0_15_15
*410 FILLER_0_15_161
*411 FILLER_0_15_167
*412 FILLER_0_15_169
*413 FILLER_0_15_181
*414 FILLER_0_15_193
*415 FILLER_0_15_205
*416 FILLER_0_15_217
*417 FILLER_0_15_223
*418 FILLER_0_15_225
*419 FILLER_0_15_237
*420 FILLER_0_15_249
*421 FILLER_0_15_261
*422 FILLER_0_15_27
*423 FILLER_0_15_273
*424 FILLER_0_15_279
*425 FILLER_0_15_281
*426 FILLER_0_15_293
*427 FILLER_0_15_3
*428 FILLER_0_15_305
*429 FILLER_0_15_317
*430 FILLER_0_15_329
*431 FILLER_0_15_335
*432 FILLER_0_15_337
*433 FILLER_0_15_349
*434 FILLER_0_15_39
*435 FILLER_0_15_51
*436 FILLER_0_15_55
*437 FILLER_0_15_57
*438 FILLER_0_15_69
*439 FILLER_0_15_81
*440 FILLER_0_15_93
*441 FILLER_0_16_109
*442 FILLER_0_16_121
*443 FILLER_0_16_133
*444 FILLER_0_16_139
*445 FILLER_0_16_141
*446 FILLER_0_16_15
*447 FILLER_0_16_153
*448 FILLER_0_16_165
*449 FILLER_0_16_177
*450 FILLER_0_16_189
*451 FILLER_0_16_195
*452 FILLER_0_16_197
*453 FILLER_0_16_209
*454 FILLER_0_16_221
*455 FILLER_0_16_233
*456 FILLER_0_16_245
*457 FILLER_0_16_251
*458 FILLER_0_16_253
*459 FILLER_0_16_265
*460 FILLER_0_16_27
*461 FILLER_0_16_277
*462 FILLER_0_16_289
*463 FILLER_0_16_29
*464 FILLER_0_16_3
*465 FILLER_0_16_301
*466 FILLER_0_16_307
*467 FILLER_0_16_309
*468 FILLER_0_16_321
*469 FILLER_0_16_333
*470 FILLER_0_16_345
*471 FILLER_0_16_41
*472 FILLER_0_16_53
*473 FILLER_0_16_65
*474 FILLER_0_16_77
*475 FILLER_0_16_83
*476 FILLER_0_16_85
*477 FILLER_0_16_97
*478 FILLER_0_17_105
*479 FILLER_0_17_111
*480 FILLER_0_17_113
*481 FILLER_0_17_125
*482 FILLER_0_17_137
*483 FILLER_0_17_149
*484 FILLER_0_17_15
*485 FILLER_0_17_161
*486 FILLER_0_17_167
*487 FILLER_0_17_169
*488 FILLER_0_17_181
*489 FILLER_0_17_193
*490 FILLER_0_17_205
*491 FILLER_0_17_217
*492 FILLER_0_17_223
*493 FILLER_0_17_225
*494 FILLER_0_17_237
*495 FILLER_0_17_249
*496 FILLER_0_17_261
*497 FILLER_0_17_27
*498 FILLER_0_17_273
*499 FILLER_0_17_279
*500 FILLER_0_17_281
*501 FILLER_0_17_293
*502 FILLER_0_17_3
*503 FILLER_0_17_305
*504 FILLER_0_17_317
*505 FILLER_0_17_329
*506 FILLER_0_17_335
*507 FILLER_0_17_337
*508 FILLER_0_17_349
*509 FILLER_0_17_39
*510 FILLER_0_17_51
*511 FILLER_0_17_55
*512 FILLER_0_17_57
*513 FILLER_0_17_69
*514 FILLER_0_17_81
*515 FILLER_0_17_93
*516 FILLER_0_18_109
*517 FILLER_0_18_121
*518 FILLER_0_18_133
*519 FILLER_0_18_139
*520 FILLER_0_18_141
*521 FILLER_0_18_15
*522 FILLER_0_18_153
*523 FILLER_0_18_165
*524 FILLER_0_18_177
*525 FILLER_0_18_189
*526 FILLER_0_18_195
*527 FILLER_0_18_197
*528 FILLER_0_18_209
*529 FILLER_0_18_221
*530 FILLER_0_18_233
*531 FILLER_0_18_245
*532 FILLER_0_18_251
*533 FILLER_0_18_253
*534 FILLER_0_18_265
*535 FILLER_0_18_27
*536 FILLER_0_18_277
*537 FILLER_0_18_289
*538 FILLER_0_18_29
*539 FILLER_0_18_3
*540 FILLER_0_18_301
*541 FILLER_0_18_307
*542 FILLER_0_18_309
*543 FILLER_0_18_321
*544 FILLER_0_18_333
*545 FILLER_0_18_345
*546 FILLER_0_18_41
*547 FILLER_0_18_53
*548 FILLER_0_18_65
*549 FILLER_0_18_77
*550 FILLER_0_18_83
*551 FILLER_0_18_85
*552 FILLER_0_18_97
*553 FILLER_0_19_105
*554 FILLER_0_19_111
*555 FILLER_0_19_113
*556 FILLER_0_19_125
*557 FILLER_0_19_137
*558 FILLER_0_19_149
*559 FILLER_0_19_15
*560 FILLER_0_19_161
*561 FILLER_0_19_167
*562 FILLER_0_19_169
*563 FILLER_0_19_181
*564 FILLER_0_19_193
*565 FILLER_0_19_205
*566 FILLER_0_19_217
*567 FILLER_0_19_223
*568 FILLER_0_19_225
*569 FILLER_0_19_237
*570 FILLER_0_19_249
*571 FILLER_0_19_261
*572 FILLER_0_19_27
*573 FILLER_0_19_273
*574 FILLER_0_19_279
*575 FILLER_0_19_281
*576 FILLER_0_19_293
*577 FILLER_0_19_3
*578 FILLER_0_19_305
*579 FILLER_0_19_317
*580 FILLER_0_19_329
*581 FILLER_0_19_335
*582 FILLER_0_19_337
*583 FILLER_0_19_349
*584 FILLER_0_19_39
*585 FILLER_0_19_51
*586 FILLER_0_19_55
*587 FILLER_0_19_57
*588 FILLER_0_19_69
*589 FILLER_0_19_81
*590 FILLER_0_19_93
*591 FILLER_0_1_105
*592 FILLER_0_1_111
*593 FILLER_0_1_113
*594 FILLER_0_1_125
*595 FILLER_0_1_137
*596 FILLER_0_1_149
*597 FILLER_0_1_15
*598 FILLER_0_1_161
*599 FILLER_0_1_167
*600 FILLER_0_1_169
*601 FILLER_0_1_181
*602 FILLER_0_1_193
*603 FILLER_0_1_205
*604 FILLER_0_1_217
*605 FILLER_0_1_223
*606 FILLER_0_1_225
*607 FILLER_0_1_237
*608 FILLER_0_1_249
*609 FILLER_0_1_261
*610 FILLER_0_1_27
*611 FILLER_0_1_273
*612 FILLER_0_1_279
*613 FILLER_0_1_281
*614 FILLER_0_1_293
*615 FILLER_0_1_3
*616 FILLER_0_1_305
*617 FILLER_0_1_317
*618 FILLER_0_1_329
*619 FILLER_0_1_335
*620 FILLER_0_1_337
*621 FILLER_0_1_349
*622 FILLER_0_1_39
*623 FILLER_0_1_51
*624 FILLER_0_1_55
*625 FILLER_0_1_57
*626 FILLER_0_1_69
*627 FILLER_0_1_81
*628 FILLER_0_1_93
*629 FILLER_0_20_109
*630 FILLER_0_20_121
*631 FILLER_0_20_133
*632 FILLER_0_20_139
*633 FILLER_0_20_141
*634 FILLER_0_20_15
*635 FILLER_0_20_153
*636 FILLER_0_20_165
*637 FILLER_0_20_177
*638 FILLER_0_20_189
*639 FILLER_0_20_195
*640 FILLER_0_20_197
*641 FILLER_0_20_209
*642 FILLER_0_20_221
*643 FILLER_0_20_233
*644 FILLER_0_20_245
*645 FILLER_0_20_251
*646 FILLER_0_20_253
*647 FILLER_0_20_265
*648 FILLER_0_20_27
*649 FILLER_0_20_277
*650 FILLER_0_20_289
*651 FILLER_0_20_29
*652 FILLER_0_20_3
*653 FILLER_0_20_301
*654 FILLER_0_20_307
*655 FILLER_0_20_309
*656 FILLER_0_20_321
*657 FILLER_0_20_333
*658 FILLER_0_20_345
*659 FILLER_0_20_41
*660 FILLER_0_20_53
*661 FILLER_0_20_65
*662 FILLER_0_20_77
*663 FILLER_0_20_83
*664 FILLER_0_20_85
*665 FILLER_0_20_97
*666 FILLER_0_21_105
*667 FILLER_0_21_111
*668 FILLER_0_21_113
*669 FILLER_0_21_125
*670 FILLER_0_21_137
*671 FILLER_0_21_149
*672 FILLER_0_21_15
*673 FILLER_0_21_161
*674 FILLER_0_21_167
*675 FILLER_0_21_169
*676 FILLER_0_21_181
*677 FILLER_0_21_193
*678 FILLER_0_21_205
*679 FILLER_0_21_217
*680 FILLER_0_21_223
*681 FILLER_0_21_225
*682 FILLER_0_21_237
*683 FILLER_0_21_249
*684 FILLER_0_21_261
*685 FILLER_0_21_27
*686 FILLER_0_21_273
*687 FILLER_0_21_279
*688 FILLER_0_21_281
*689 FILLER_0_21_293
*690 FILLER_0_21_3
*691 FILLER_0_21_305
*692 FILLER_0_21_317
*693 FILLER_0_21_329
*694 FILLER_0_21_335
*695 FILLER_0_21_337
*696 FILLER_0_21_349
*697 FILLER_0_21_39
*698 FILLER_0_21_51
*699 FILLER_0_21_55
*700 FILLER_0_21_57
*701 FILLER_0_21_69
*702 FILLER_0_21_81
*703 FILLER_0_21_93
*704 FILLER_0_22_109
*705 FILLER_0_22_121
*706 FILLER_0_22_133
*707 FILLER_0_22_139
*708 FILLER_0_22_141
*709 FILLER_0_22_15
*710 FILLER_0_22_153
*711 FILLER_0_22_165
*712 FILLER_0_22_177
*713 FILLER_0_22_189
*714 FILLER_0_22_195
*715 FILLER_0_22_197
*716 FILLER_0_22_209
*717 FILLER_0_22_221
*718 FILLER_0_22_233
*719 FILLER_0_22_245
*720 FILLER_0_22_251
*721 FILLER_0_22_253
*722 FILLER_0_22_265
*723 FILLER_0_22_27
*724 FILLER_0_22_277
*725 FILLER_0_22_289
*726 FILLER_0_22_29
*727 FILLER_0_22_3
*728 FILLER_0_22_301
*729 FILLER_0_22_307
*730 FILLER_0_22_309
*731 FILLER_0_22_321
*732 FILLER_0_22_333
*733 FILLER_0_22_345
*734 FILLER_0_22_41
*735 FILLER_0_22_53
*736 FILLER_0_22_65
*737 FILLER_0_22_77
*738 FILLER_0_22_83
*739 FILLER_0_22_85
*740 FILLER_0_22_97
*741 FILLER_0_23_105
*742 FILLER_0_23_111
*743 FILLER_0_23_113
*744 FILLER_0_23_125
*745 FILLER_0_23_137
*746 FILLER_0_23_149
*747 FILLER_0_23_15
*748 FILLER_0_23_161
*749 FILLER_0_23_167
*750 FILLER_0_23_169
*751 FILLER_0_23_181
*752 FILLER_0_23_193
*753 FILLER_0_23_205
*754 FILLER_0_23_217
*755 FILLER_0_23_223
*756 FILLER_0_23_225
*757 FILLER_0_23_237
*758 FILLER_0_23_249
*759 FILLER_0_23_261
*760 FILLER_0_23_27
*761 FILLER_0_23_273
*762 FILLER_0_23_279
*763 FILLER_0_23_281
*764 FILLER_0_23_293
*765 FILLER_0_23_3
*766 FILLER_0_23_305
*767 FILLER_0_23_317
*768 FILLER_0_23_329
*769 FILLER_0_23_335
*770 FILLER_0_23_337
*771 FILLER_0_23_349
*772 FILLER_0_23_39
*773 FILLER_0_23_51
*774 FILLER_0_23_55
*775 FILLER_0_23_57
*776 FILLER_0_23_69
*777 FILLER_0_23_81
*778 FILLER_0_23_93
*779 FILLER_0_24_109
*780 FILLER_0_24_121
*781 FILLER_0_24_133
*782 FILLER_0_24_139
*783 FILLER_0_24_141
*784 FILLER_0_24_15
*785 FILLER_0_24_153
*786 FILLER_0_24_165
*787 FILLER_0_24_177
*788 FILLER_0_24_189
*789 FILLER_0_24_195
*790 FILLER_0_24_197
*791 FILLER_0_24_209
*792 FILLER_0_24_221
*793 FILLER_0_24_233
*794 FILLER_0_24_245
*795 FILLER_0_24_251
*796 FILLER_0_24_253
*797 FILLER_0_24_265
*798 FILLER_0_24_27
*799 FILLER_0_24_277
*800 FILLER_0_24_289
*801 FILLER_0_24_29
*802 FILLER_0_24_3
*803 FILLER_0_24_301
*804 FILLER_0_24_307
*805 FILLER_0_24_309
*806 FILLER_0_24_321
*807 FILLER_0_24_333
*808 FILLER_0_24_345
*809 FILLER_0_24_41
*810 FILLER_0_24_53
*811 FILLER_0_24_65
*812 FILLER_0_24_77
*813 FILLER_0_24_83
*814 FILLER_0_24_85
*815 FILLER_0_24_97
*816 FILLER_0_25_105
*817 FILLER_0_25_111
*818 FILLER_0_25_113
*819 FILLER_0_25_125
*820 FILLER_0_25_137
*821 FILLER_0_25_149
*822 FILLER_0_25_15
*823 FILLER_0_25_161
*824 FILLER_0_25_167
*825 FILLER_0_25_169
*826 FILLER_0_25_181
*827 FILLER_0_25_193
*828 FILLER_0_25_205
*829 FILLER_0_25_217
*830 FILLER_0_25_223
*831 FILLER_0_25_225
*832 FILLER_0_25_237
*833 FILLER_0_25_249
*834 FILLER_0_25_261
*835 FILLER_0_25_27
*836 FILLER_0_25_273
*837 FILLER_0_25_279
*838 FILLER_0_25_281
*839 FILLER_0_25_293
*840 FILLER_0_25_3
*841 FILLER_0_25_305
*842 FILLER_0_25_317
*843 FILLER_0_25_329
*844 FILLER_0_25_335
*845 FILLER_0_25_337
*846 FILLER_0_25_349
*847 FILLER_0_25_39
*848 FILLER_0_25_51
*849 FILLER_0_25_55
*850 FILLER_0_25_57
*851 FILLER_0_25_69
*852 FILLER_0_25_81
*853 FILLER_0_25_93
*854 FILLER_0_26_109
*855 FILLER_0_26_121
*856 FILLER_0_26_133
*857 FILLER_0_26_139
*858 FILLER_0_26_141
*859 FILLER_0_26_15
*860 FILLER_0_26_153
*861 FILLER_0_26_165
*862 FILLER_0_26_177
*863 FILLER_0_26_189
*864 FILLER_0_26_195
*865 FILLER_0_26_197
*866 FILLER_0_26_209
*867 FILLER_0_26_221
*868 FILLER_0_26_233
*869 FILLER_0_26_245
*870 FILLER_0_26_251
*871 FILLER_0_26_253
*872 FILLER_0_26_265
*873 FILLER_0_26_27
*874 FILLER_0_26_277
*875 FILLER_0_26_289
*876 FILLER_0_26_29
*877 FILLER_0_26_3
*878 FILLER_0_26_301
*879 FILLER_0_26_307
*880 FILLER_0_26_309
*881 FILLER_0_26_321
*882 FILLER_0_26_333
*883 FILLER_0_26_345
*884 FILLER_0_26_41
*885 FILLER_0_26_53
*886 FILLER_0_26_65
*887 FILLER_0_26_77
*888 FILLER_0_26_83
*889 FILLER_0_26_85
*890 FILLER_0_26_97
*891 FILLER_0_27_105
*892 FILLER_0_27_111
*893 FILLER_0_27_113
*894 FILLER_0_27_125
*895 FILLER_0_27_137
*896 FILLER_0_27_149
*897 FILLER_0_27_15
*898 FILLER_0_27_161
*899 FILLER_0_27_167
*900 FILLER_0_27_169
*901 FILLER_0_27_181
*902 FILLER_0_27_193
*903 FILLER_0_27_205
*904 FILLER_0_27_217
*905 FILLER_0_27_223
*906 FILLER_0_27_225
*907 FILLER_0_27_237
*908 FILLER_0_27_249
*909 FILLER_0_27_261
*910 FILLER_0_27_27
*911 FILLER_0_27_273
*912 FILLER_0_27_279
*913 FILLER_0_27_281
*914 FILLER_0_27_293
*915 FILLER_0_27_3
*916 FILLER_0_27_305
*917 FILLER_0_27_317
*918 FILLER_0_27_329
*919 FILLER_0_27_335
*920 FILLER_0_27_337
*921 FILLER_0_27_349
*922 FILLER_0_27_39
*923 FILLER_0_27_51
*924 FILLER_0_27_55
*925 FILLER_0_27_57
*926 FILLER_0_27_69
*927 FILLER_0_27_81
*928 FILLER_0_27_93
*929 FILLER_0_28_109
*930 FILLER_0_28_121
*931 FILLER_0_28_133
*932 FILLER_0_28_139
*933 FILLER_0_28_141
*934 FILLER_0_28_15
*935 FILLER_0_28_153
*936 FILLER_0_28_165
*937 FILLER_0_28_177
*938 FILLER_0_28_189
*939 FILLER_0_28_195
*940 FILLER_0_28_197
*941 FILLER_0_28_209
*942 FILLER_0_28_221
*943 FILLER_0_28_233
*944 FILLER_0_28_245
*945 FILLER_0_28_251
*946 FILLER_0_28_253
*947 FILLER_0_28_265
*948 FILLER_0_28_27
*949 FILLER_0_28_277
*950 FILLER_0_28_289
*951 FILLER_0_28_29
*952 FILLER_0_28_3
*953 FILLER_0_28_301
*954 FILLER_0_28_307
*955 FILLER_0_28_309
*956 FILLER_0_28_321
*957 FILLER_0_28_333
*958 FILLER_0_28_345
*959 FILLER_0_28_41
*960 FILLER_0_28_53
*961 FILLER_0_28_65
*962 FILLER_0_28_77
*963 FILLER_0_28_83
*964 FILLER_0_28_85
*965 FILLER_0_28_97
*966 FILLER_0_29_105
*967 FILLER_0_29_111
*968 FILLER_0_29_113
*969 FILLER_0_29_125
*970 FILLER_0_29_137
*971 FILLER_0_29_149
*972 FILLER_0_29_15
*973 FILLER_0_29_161
*974 FILLER_0_29_167
*975 FILLER_0_29_169
*976 FILLER_0_29_181
*977 FILLER_0_29_193
*978 FILLER_0_29_205
*979 FILLER_0_29_217
*980 FILLER_0_29_223
*981 FILLER_0_29_225
*982 FILLER_0_29_237
*983 FILLER_0_29_249
*984 FILLER_0_29_261
*985 FILLER_0_29_27
*986 FILLER_0_29_273
*987 FILLER_0_29_279
*988 FILLER_0_29_281
*989 FILLER_0_29_293
*990 FILLER_0_29_3
*991 FILLER_0_29_305
*992 FILLER_0_29_317
*993 FILLER_0_29_329
*994 FILLER_0_29_335
*995 FILLER_0_29_337
*996 FILLER_0_29_349
*997 FILLER_0_29_39
*998 FILLER_0_29_51
*999 FILLER_0_29_55
*1000 FILLER_0_29_57
*1001 FILLER_0_29_69
*1002 FILLER_0_29_81
*1003 FILLER_0_29_93
*1004 FILLER_0_2_109
*1005 FILLER_0_2_121
*1006 FILLER_0_2_133
*1007 FILLER_0_2_139
*1008 FILLER_0_2_141
*1009 FILLER_0_2_15
*1010 FILLER_0_2_153
*1011 FILLER_0_2_165
*1012 FILLER_0_2_177
*1013 FILLER_0_2_189
*1014 FILLER_0_2_195
*1015 FILLER_0_2_197
*1016 FILLER_0_2_209
*1017 FILLER_0_2_221
*1018 FILLER_0_2_233
*1019 FILLER_0_2_245
*1020 FILLER_0_2_251
*1021 FILLER_0_2_253
*1022 FILLER_0_2_265
*1023 FILLER_0_2_27
*1024 FILLER_0_2_277
*1025 FILLER_0_2_289
*1026 FILLER_0_2_29
*1027 FILLER_0_2_3
*1028 FILLER_0_2_301
*1029 FILLER_0_2_307
*1030 FILLER_0_2_309
*1031 FILLER_0_2_321
*1032 FILLER_0_2_333
*1033 FILLER_0_2_345
*1034 FILLER_0_2_41
*1035 FILLER_0_2_53
*1036 FILLER_0_2_65
*1037 FILLER_0_2_77
*1038 FILLER_0_2_83
*1039 FILLER_0_2_85
*1040 FILLER_0_2_97
*1041 FILLER_0_30_109
*1042 FILLER_0_30_121
*1043 FILLER_0_30_133
*1044 FILLER_0_30_139
*1045 FILLER_0_30_141
*1046 FILLER_0_30_15
*1047 FILLER_0_30_153
*1048 FILLER_0_30_165
*1049 FILLER_0_30_177
*1050 FILLER_0_30_189
*1051 FILLER_0_30_195
*1052 FILLER_0_30_197
*1053 FILLER_0_30_209
*1054 FILLER_0_30_221
*1055 FILLER_0_30_233
*1056 FILLER_0_30_245
*1057 FILLER_0_30_251
*1058 FILLER_0_30_253
*1059 FILLER_0_30_265
*1060 FILLER_0_30_27
*1061 FILLER_0_30_277
*1062 FILLER_0_30_289
*1063 FILLER_0_30_29
*1064 FILLER_0_30_3
*1065 FILLER_0_30_301
*1066 FILLER_0_30_307
*1067 FILLER_0_30_309
*1068 FILLER_0_30_321
*1069 FILLER_0_30_333
*1070 FILLER_0_30_345
*1071 FILLER_0_30_41
*1072 FILLER_0_30_53
*1073 FILLER_0_30_65
*1074 FILLER_0_30_77
*1075 FILLER_0_30_83
*1076 FILLER_0_30_85
*1077 FILLER_0_30_97
*1078 FILLER_0_31_108
*1079 FILLER_0_31_113
*1080 FILLER_0_31_119
*1081 FILLER_0_31_127
*1082 FILLER_0_31_138
*1083 FILLER_0_31_15
*1084 FILLER_0_31_150
*1085 FILLER_0_31_162
*1086 FILLER_0_31_169
*1087 FILLER_0_31_181
*1088 FILLER_0_31_185
*1089 FILLER_0_31_197
*1090 FILLER_0_31_206
*1091 FILLER_0_31_218
*1092 FILLER_0_31_225
*1093 FILLER_0_31_237
*1094 FILLER_0_31_249
*1095 FILLER_0_31_261
*1096 FILLER_0_31_27
*1097 FILLER_0_31_273
*1098 FILLER_0_31_279
*1099 FILLER_0_31_281
*1100 FILLER_0_31_293
*1101 FILLER_0_31_3
*1102 FILLER_0_31_305
*1103 FILLER_0_31_317
*1104 FILLER_0_31_329
*1105 FILLER_0_31_335
*1106 FILLER_0_31_337
*1107 FILLER_0_31_349
*1108 FILLER_0_31_39
*1109 FILLER_0_31_51
*1110 FILLER_0_31_55
*1111 FILLER_0_31_57
*1112 FILLER_0_31_69
*1113 FILLER_0_31_81
*1114 FILLER_0_32_111
*1115 FILLER_0_32_133
*1116 FILLER_0_32_139
*1117 FILLER_0_32_15
*1118 FILLER_0_32_160
*1119 FILLER_0_32_172
*1120 FILLER_0_32_197
*1121 FILLER_0_32_217
*1122 FILLER_0_32_229
*1123 FILLER_0_32_241
*1124 FILLER_0_32_249
*1125 FILLER_0_32_253
*1126 FILLER_0_32_265
*1127 FILLER_0_32_27
*1128 FILLER_0_32_29
*1129 FILLER_0_32_290
*1130 FILLER_0_32_3
*1131 FILLER_0_32_302
*1132 FILLER_0_32_309
*1133 FILLER_0_32_321
*1134 FILLER_0_32_333
*1135 FILLER_0_32_345
*1136 FILLER_0_32_41
*1137 FILLER_0_32_53
*1138 FILLER_0_32_65
*1139 FILLER_0_32_77
*1140 FILLER_0_32_82
*1141 FILLER_0_32_95
*1142 FILLER_0_33_104
*1143 FILLER_0_33_108
*1144 FILLER_0_33_113
*1145 FILLER_0_33_144
*1146 FILLER_0_33_15
*1147 FILLER_0_33_169
*1148 FILLER_0_33_183
*1149 FILLER_0_33_193
*1150 FILLER_0_33_197
*1151 FILLER_0_33_206
*1152 FILLER_0_33_211
*1153 FILLER_0_33_223
*1154 FILLER_0_33_225
*1155 FILLER_0_33_230
*1156 FILLER_0_33_256
*1157 FILLER_0_33_268
*1158 FILLER_0_33_27
*1159 FILLER_0_33_281
*1160 FILLER_0_33_293
*1161 FILLER_0_33_3
*1162 FILLER_0_33_305
*1163 FILLER_0_33_317
*1164 FILLER_0_33_329
*1165 FILLER_0_33_335
*1166 FILLER_0_33_337
*1167 FILLER_0_33_349
*1168 FILLER_0_33_39
*1169 FILLER_0_33_51
*1170 FILLER_0_33_55
*1171 FILLER_0_33_57
*1172 FILLER_0_33_69
*1173 FILLER_0_34_111
*1174 FILLER_0_34_132
*1175 FILLER_0_34_15
*1176 FILLER_0_34_152
*1177 FILLER_0_34_158
*1178 FILLER_0_34_164
*1179 FILLER_0_34_181
*1180 FILLER_0_34_187
*1181 FILLER_0_34_195
*1182 FILLER_0_34_197
*1183 FILLER_0_34_223
*1184 FILLER_0_34_251
*1185 FILLER_0_34_27
*1186 FILLER_0_34_280
*1187 FILLER_0_34_29
*1188 FILLER_0_34_3
*1189 FILLER_0_34_309
*1190 FILLER_0_34_321
*1191 FILLER_0_34_333
*1192 FILLER_0_34_345
*1193 FILLER_0_34_41
*1194 FILLER_0_34_53
*1195 FILLER_0_34_65
*1196 FILLER_0_34_77
*1197 FILLER_0_34_83
*1198 FILLER_0_34_85
*1199 FILLER_0_34_89
*1200 FILLER_0_35_102
*1201 FILLER_0_35_106
*1202 FILLER_0_35_113
*1203 FILLER_0_35_123
*1204 FILLER_0_35_127
*1205 FILLER_0_35_139
*1206 FILLER_0_35_15
*1207 FILLER_0_35_164
*1208 FILLER_0_35_180
*1209 FILLER_0_35_218
*1210 FILLER_0_35_225
*1211 FILLER_0_35_234
*1212 FILLER_0_35_246
*1213 FILLER_0_35_256
*1214 FILLER_0_35_27
*1215 FILLER_0_35_277
*1216 FILLER_0_35_281
*1217 FILLER_0_35_292
*1218 FILLER_0_35_3
*1219 FILLER_0_35_308
*1220 FILLER_0_35_320
*1221 FILLER_0_35_332
*1222 FILLER_0_35_337
*1223 FILLER_0_35_349
*1224 FILLER_0_35_39
*1225 FILLER_0_35_51
*1226 FILLER_0_35_55
*1227 FILLER_0_35_57
*1228 FILLER_0_35_69
*1229 FILLER_0_35_77
*1230 FILLER_0_36_122
*1231 FILLER_0_36_141
*1232 FILLER_0_36_149
*1233 FILLER_0_36_15
*1234 FILLER_0_36_163
*1235 FILLER_0_36_175
*1236 FILLER_0_36_182
*1237 FILLER_0_36_190
*1238 FILLER_0_36_197
*1239 FILLER_0_36_206
*1240 FILLER_0_36_215
*1241 FILLER_0_36_242
*1242 FILLER_0_36_248
*1243 FILLER_0_36_253
*1244 FILLER_0_36_27
*1245 FILLER_0_36_276
*1246 FILLER_0_36_284
*1247 FILLER_0_36_29
*1248 FILLER_0_36_294
*1249 FILLER_0_36_3
*1250 FILLER_0_36_307
*1251 FILLER_0_36_319
*1252 FILLER_0_36_323
*1253 FILLER_0_36_335
*1254 FILLER_0_36_347
*1255 FILLER_0_36_41
*1256 FILLER_0_36_53
*1257 FILLER_0_36_65
*1258 FILLER_0_36_77
*1259 FILLER_0_36_83
*1260 FILLER_0_36_93
*1261 FILLER_0_36_97
*1262 FILLER_0_37_108
*1263 FILLER_0_37_113
*1264 FILLER_0_37_124
*1265 FILLER_0_37_136
*1266 FILLER_0_37_140
*1267 FILLER_0_37_15
*1268 FILLER_0_37_169
*1269 FILLER_0_37_187
*1270 FILLER_0_37_207
*1271 FILLER_0_37_218
*1272 FILLER_0_37_225
*1273 FILLER_0_37_237
*1274 FILLER_0_37_249
*1275 FILLER_0_37_260
*1276 FILLER_0_37_267
*1277 FILLER_0_37_27
*1278 FILLER_0_37_279
*1279 FILLER_0_37_3
*1280 FILLER_0_37_304
*1281 FILLER_0_37_308
*1282 FILLER_0_37_337
*1283 FILLER_0_37_349
*1284 FILLER_0_37_39
*1285 FILLER_0_37_51
*1286 FILLER_0_37_55
*1287 FILLER_0_37_57
*1288 FILLER_0_37_69
*1289 FILLER_0_37_81
*1290 FILLER_0_37_93
*1291 FILLER_0_37_99
*1292 FILLER_0_38_104
*1293 FILLER_0_38_110
*1294 FILLER_0_38_123
*1295 FILLER_0_38_130
*1296 FILLER_0_38_134
*1297 FILLER_0_38_141
*1298 FILLER_0_38_15
*1299 FILLER_0_38_165
*1300 FILLER_0_38_169
*1301 FILLER_0_38_181
*1302 FILLER_0_38_185
*1303 FILLER_0_38_193
*1304 FILLER_0_38_197
*1305 FILLER_0_38_205
*1306 FILLER_0_38_212
*1307 FILLER_0_38_217
*1308 FILLER_0_38_223
*1309 FILLER_0_38_240
*1310 FILLER_0_38_27
*1311 FILLER_0_38_279
*1312 FILLER_0_38_29
*1313 FILLER_0_38_3
*1314 FILLER_0_38_301
*1315 FILLER_0_38_313
*1316 FILLER_0_38_325
*1317 FILLER_0_38_333
*1318 FILLER_0_38_337
*1319 FILLER_0_38_349
*1320 FILLER_0_38_41
*1321 FILLER_0_38_53
*1322 FILLER_0_38_57
*1323 FILLER_0_38_68
*1324 FILLER_0_38_74
*1325 FILLER_0_38_80
*1326 FILLER_0_38_88
*1327 FILLER_0_38_92
*1328 FILLER_0_38_98
*1329 FILLER_0_3_105
*1330 FILLER_0_3_111
*1331 FILLER_0_3_113
*1332 FILLER_0_3_125
*1333 FILLER_0_3_137
*1334 FILLER_0_3_149
*1335 FILLER_0_3_15
*1336 FILLER_0_3_161
*1337 FILLER_0_3_167
*1338 FILLER_0_3_169
*1339 FILLER_0_3_181
*1340 FILLER_0_3_193
*1341 FILLER_0_3_205
*1342 FILLER_0_3_217
*1343 FILLER_0_3_223
*1344 FILLER_0_3_225
*1345 FILLER_0_3_237
*1346 FILLER_0_3_249
*1347 FILLER_0_3_261
*1348 FILLER_0_3_27
*1349 FILLER_0_3_273
*1350 FILLER_0_3_279
*1351 FILLER_0_3_281
*1352 FILLER_0_3_293
*1353 FILLER_0_3_3
*1354 FILLER_0_3_305
*1355 FILLER_0_3_317
*1356 FILLER_0_3_329
*1357 FILLER_0_3_335
*1358 FILLER_0_3_337
*1359 FILLER_0_3_349
*1360 FILLER_0_3_39
*1361 FILLER_0_3_51
*1362 FILLER_0_3_55
*1363 FILLER_0_3_57
*1364 FILLER_0_3_69
*1365 FILLER_0_3_81
*1366 FILLER_0_3_93
*1367 FILLER_0_4_109
*1368 FILLER_0_4_121
*1369 FILLER_0_4_133
*1370 FILLER_0_4_139
*1371 FILLER_0_4_141
*1372 FILLER_0_4_15
*1373 FILLER_0_4_153
*1374 FILLER_0_4_165
*1375 FILLER_0_4_177
*1376 FILLER_0_4_189
*1377 FILLER_0_4_195
*1378 FILLER_0_4_197
*1379 FILLER_0_4_209
*1380 FILLER_0_4_221
*1381 FILLER_0_4_233
*1382 FILLER_0_4_245
*1383 FILLER_0_4_251
*1384 FILLER_0_4_253
*1385 FILLER_0_4_265
*1386 FILLER_0_4_27
*1387 FILLER_0_4_277
*1388 FILLER_0_4_289
*1389 FILLER_0_4_29
*1390 FILLER_0_4_3
*1391 FILLER_0_4_301
*1392 FILLER_0_4_307
*1393 FILLER_0_4_309
*1394 FILLER_0_4_321
*1395 FILLER_0_4_333
*1396 FILLER_0_4_345
*1397 FILLER_0_4_41
*1398 FILLER_0_4_53
*1399 FILLER_0_4_65
*1400 FILLER_0_4_77
*1401 FILLER_0_4_83
*1402 FILLER_0_4_85
*1403 FILLER_0_4_97
*1404 FILLER_0_5_105
*1405 FILLER_0_5_111
*1406 FILLER_0_5_113
*1407 FILLER_0_5_125
*1408 FILLER_0_5_137
*1409 FILLER_0_5_149
*1410 FILLER_0_5_15
*1411 FILLER_0_5_161
*1412 FILLER_0_5_167
*1413 FILLER_0_5_169
*1414 FILLER_0_5_181
*1415 FILLER_0_5_193
*1416 FILLER_0_5_205
*1417 FILLER_0_5_217
*1418 FILLER_0_5_223
*1419 FILLER_0_5_225
*1420 FILLER_0_5_237
*1421 FILLER_0_5_249
*1422 FILLER_0_5_261
*1423 FILLER_0_5_27
*1424 FILLER_0_5_273
*1425 FILLER_0_5_279
*1426 FILLER_0_5_281
*1427 FILLER_0_5_293
*1428 FILLER_0_5_3
*1429 FILLER_0_5_305
*1430 FILLER_0_5_317
*1431 FILLER_0_5_329
*1432 FILLER_0_5_335
*1433 FILLER_0_5_337
*1434 FILLER_0_5_349
*1435 FILLER_0_5_39
*1436 FILLER_0_5_51
*1437 FILLER_0_5_55
*1438 FILLER_0_5_57
*1439 FILLER_0_5_69
*1440 FILLER_0_5_81
*1441 FILLER_0_5_93
*1442 FILLER_0_6_109
*1443 FILLER_0_6_121
*1444 FILLER_0_6_133
*1445 FILLER_0_6_139
*1446 FILLER_0_6_141
*1447 FILLER_0_6_15
*1448 FILLER_0_6_153
*1449 FILLER_0_6_165
*1450 FILLER_0_6_177
*1451 FILLER_0_6_189
*1452 FILLER_0_6_195
*1453 FILLER_0_6_197
*1454 FILLER_0_6_209
*1455 FILLER_0_6_221
*1456 FILLER_0_6_233
*1457 FILLER_0_6_245
*1458 FILLER_0_6_251
*1459 FILLER_0_6_253
*1460 FILLER_0_6_265
*1461 FILLER_0_6_27
*1462 FILLER_0_6_277
*1463 FILLER_0_6_289
*1464 FILLER_0_6_29
*1465 FILLER_0_6_3
*1466 FILLER_0_6_301
*1467 FILLER_0_6_307
*1468 FILLER_0_6_309
*1469 FILLER_0_6_321
*1470 FILLER_0_6_333
*1471 FILLER_0_6_345
*1472 FILLER_0_6_41
*1473 FILLER_0_6_53
*1474 FILLER_0_6_65
*1475 FILLER_0_6_77
*1476 FILLER_0_6_83
*1477 FILLER_0_6_85
*1478 FILLER_0_6_97
*1479 FILLER_0_7_105
*1480 FILLER_0_7_111
*1481 FILLER_0_7_113
*1482 FILLER_0_7_125
*1483 FILLER_0_7_137
*1484 FILLER_0_7_149
*1485 FILLER_0_7_15
*1486 FILLER_0_7_161
*1487 FILLER_0_7_167
*1488 FILLER_0_7_169
*1489 FILLER_0_7_181
*1490 FILLER_0_7_193
*1491 FILLER_0_7_205
*1492 FILLER_0_7_217
*1493 FILLER_0_7_223
*1494 FILLER_0_7_225
*1495 FILLER_0_7_237