*SPEF "ieee 1481-1999"
*DESIGN "tt_um_EventFilter"
*DATE "11:11:11 Fri 11 11, 1111"
*VENDOR "OpenRCX"
*PROGRAM "Parallel Extraction"
*VERSION "1.0"
*DESIGN_FLOW "NAME_SCOPE LOCAL" "PIN_CAP NONE"
*DIVIDER /
*DELIMITER :
*BUS_DELIMITER []
*T_UNIT 1 NS
*C_UNIT 1 PF
*R_UNIT 1 OHM
*L_UNIT 1 HENRY

*NAME_MAP
*3 clk
*4 ena
*5 rst_n
*6 ui_in[0]
*7 ui_in[1]
*8 ui_in[2]
*9 ui_in[3]
*10 ui_in[4]
*11 ui_in[5]
*12 ui_in[6]
*13 ui_in[7]
*14 uio_in[0]
*15 uio_in[1]
*16 uio_in[2]
*17 uio_in[3]
*18 uio_in[4]
*19 uio_in[5]
*20 uio_in[6]
*21 uio_in[7]
*22 net11
*23 net12
*24 net13
*25 net14
*26 net15
*27 net16
*28 net17
*29 net18
*30 net19
*31 net20
*32 net21
*33 net22
*34 net23
*35 net24
*36 net25
*37 net26
*38 uo_out[0]
*39 uo_out[1]
*40 uo_out[2]
*41 uo_out[3]
*42 uo_out[4]
*43 uo_out[5]
*44 uo_out[6]
*45 uo_out[7]
*46 _00_
*47 _01_
*48 _02_
*49 _04_
*50 _05_
*51 _06_
*52 _07_
*53 _08_
*54 _09_
*55 _10_
*56 _11_
*57 _12_
*58 _13_
*59 _14_
*60 clknet_0_clk
*61 clknet_1_0__leaf_clk
*62 clknet_1_1__leaf_clk
*63 net1
*64 net10
*65 net2
*66 net3
*67 net4
*68 net5
*69 net6
*70 net7
*71 net8
*72 net9
*73 FILLER_0_0_109
*74 FILLER_0_0_113
*75 FILLER_0_0_125
*76 FILLER_0_0_137
*77 FILLER_0_0_141
*78 FILLER_0_0_15
*79 FILLER_0_0_153
*80 FILLER_0_0_165
*81 FILLER_0_0_169
*82 FILLER_0_0_181
*83 FILLER_0_0_193
*84 FILLER_0_0_197
*85 FILLER_0_0_209
*86 FILLER_0_0_221
*87 FILLER_0_0_225
*88 FILLER_0_0_237
*89 FILLER_0_0_249
*90 FILLER_0_0_253
*91 FILLER_0_0_265
*92 FILLER_0_0_27
*93 FILLER_0_0_277
*94 FILLER_0_0_281
*95 FILLER_0_0_29
*96 FILLER_0_0_293
*97 FILLER_0_0_3
*98 FILLER_0_0_305
*99 FILLER_0_0_309
*100 FILLER_0_0_321
*101 FILLER_0_0_333
*102 FILLER_0_0_337
*103 FILLER_0_0_349
*104 FILLER_0_0_41
*105 FILLER_0_0_53
*106 FILLER_0_0_57
*107 FILLER_0_0_69
*108 FILLER_0_0_81
*109 FILLER_0_0_85
*110 FILLER_0_0_97
*111 FILLER_0_10_109
*112 FILLER_0_10_121
*113 FILLER_0_10_133
*114 FILLER_0_10_139
*115 FILLER_0_10_141
*116 FILLER_0_10_15
*117 FILLER_0_10_153
*118 FILLER_0_10_165
*119 FILLER_0_10_177
*120 FILLER_0_10_189
*121 FILLER_0_10_195
*122 FILLER_0_10_197
*123 FILLER_0_10_209
*124 FILLER_0_10_221
*125 FILLER_0_10_233
*126 FILLER_0_10_245
*127 FILLER_0_10_251
*128 FILLER_0_10_253
*129 FILLER_0_10_265
*130 FILLER_0_10_27
*131 FILLER_0_10_277
*132 FILLER_0_10_289
*133 FILLER_0_10_29
*134 FILLER_0_10_3
*135 FILLER_0_10_301
*136 FILLER_0_10_307
*137 FILLER_0_10_309
*138 FILLER_0_10_321
*139 FILLER_0_10_333
*140 FILLER_0_10_345
*141 FILLER_0_10_41
*142 FILLER_0_10_53
*143 FILLER_0_10_65
*144 FILLER_0_10_77
*145 FILLER_0_10_83
*146 FILLER_0_10_85
*147 FILLER_0_10_97
*148 FILLER_0_11_105
*149 FILLER_0_11_111
*150 FILLER_0_11_113
*151 FILLER_0_11_125
*152 FILLER_0_11_137
*153 FILLER_0_11_149
*154 FILLER_0_11_15
*155 FILLER_0_11_161
*156 FILLER_0_11_167
*157 FILLER_0_11_169
*158 FILLER_0_11_181
*159 FILLER_0_11_193
*160 FILLER_0_11_205
*161 FILLER_0_11_217
*162 FILLER_0_11_223
*163 FILLER_0_11_225
*164 FILLER_0_11_237
*165 FILLER_0_11_249
*166 FILLER_0_11_261
*167 FILLER_0_11_27
*168 FILLER_0_11_273
*169 FILLER_0_11_279
*170 FILLER_0_11_281
*171 FILLER_0_11_293
*172 FILLER_0_11_3
*173 FILLER_0_11_305
*174 FILLER_0_11_317
*175 FILLER_0_11_329
*176 FILLER_0_11_335
*177 FILLER_0_11_337
*178 FILLER_0_11_349
*179 FILLER_0_11_39
*180 FILLER_0_11_51
*181 FILLER_0_11_55
*182 FILLER_0_11_57
*183 FILLER_0_11_69
*184 FILLER_0_11_81
*185 FILLER_0_11_93
*186 FILLER_0_12_109
*187 FILLER_0_12_121
*188 FILLER_0_12_133
*189 FILLER_0_12_139
*190 FILLER_0_12_141
*191 FILLER_0_12_15
*192 FILLER_0_12_153
*193 FILLER_0_12_165
*194 FILLER_0_12_177
*195 FILLER_0_12_189
*196 FILLER_0_12_195
*197 FILLER_0_12_197
*198 FILLER_0_12_209
*199 FILLER_0_12_221
*200 FILLER_0_12_233
*201 FILLER_0_12_245
*202 FILLER_0_12_251
*203 FILLER_0_12_253
*204 FILLER_0_12_265
*205 FILLER_0_12_27
*206 FILLER_0_12_277
*207 FILLER_0_12_289
*208 FILLER_0_12_29
*209 FILLER_0_12_3
*210 FILLER_0_12_301
*211 FILLER_0_12_307
*212 FILLER_0_12_309
*213 FILLER_0_12_321
*214 FILLER_0_12_333
*215 FILLER_0_12_345
*216 FILLER_0_12_41
*217 FILLER_0_12_53
*218 FILLER_0_12_65
*219 FILLER_0_12_77
*220 FILLER_0_12_83
*221 FILLER_0_12_85
*222 FILLER_0_12_97
*223 FILLER_0_13_105
*224 FILLER_0_13_111
*225 FILLER_0_13_113
*226 FILLER_0_13_125
*227 FILLER_0_13_137
*228 FILLER_0_13_149
*229 FILLER_0_13_15
*230 FILLER_0_13_161
*231 FILLER_0_13_167
*232 FILLER_0_13_169
*233 FILLER_0_13_181
*234 FILLER_0_13_193
*235 FILLER_0_13_205
*236 FILLER_0_13_217
*237 FILLER_0_13_223
*238 FILLER_0_13_225
*239 FILLER_0_13_237
*240 FILLER_0_13_249
*241 FILLER_0_13_261
*242 FILLER_0_13_27
*243 FILLER_0_13_273
*244 FILLER_0_13_279
*245 FILLER_0_13_281
*246 FILLER_0_13_293
*247 FILLER_0_13_3
*248 FILLER_0_13_305
*249 FILLER_0_13_317
*250 FILLER_0_13_329
*251 FILLER_0_13_335
*252 FILLER_0_13_337
*253 FILLER_0_13_349
*254 FILLER_0_13_39
*255 FILLER_0_13_51
*256 FILLER_0_13_55
*257 FILLER_0_13_57
*258 FILLER_0_13_69
*259 FILLER_0_13_81
*260 FILLER_0_13_93
*261 FILLER_0_14_109
*262 FILLER_0_14_121
*263 FILLER_0_14_133
*264 FILLER_0_14_139
*265 FILLER_0_14_141
*266 FILLER_0_14_15
*267 FILLER_0_14_153
*268 FILLER_0_14_165
*269 FILLER_0_14_177
*270 FILLER_0_14_189
*271 FILLER_0_14_195
*272 FILLER_0_14_197
*273 FILLER_0_14_209
*274 FILLER_0_14_221
*275 FILLER_0_14_233
*276 FILLER_0_14_245
*277 FILLER_0_14_251
*278 FILLER_0_14_253
*279 FILLER_0_14_265
*280 FILLER_0_14_27
*281 FILLER_0_14_277
*282 FILLER_0_14_289
*283 FILLER_0_14_29
*284 FILLER_0_14_3
*285 FILLER_0_14_301
*286 FILLER_0_14_307
*287 FILLER_0_14_309
*288 FILLER_0_14_321
*289 FILLER_0_14_333
*290 FILLER_0_14_345
*291 FILLER_0_14_41
*292 FILLER_0_14_53
*293 FILLER_0_14_65
*294 FILLER_0_14_77
*295 FILLER_0_14_83
*296 FILLER_0_14_85
*297 FILLER_0_14_97
*298 FILLER_0_15_105
*299 FILLER_0_15_111
*300 FILLER_0_15_113
*301 FILLER_0_15_125
*302 FILLER_0_15_137
*303 FILLER_0_15_149
*304 FILLER_0_15_15
*305 FILLER_0_15_161
*306 FILLER_0_15_167
*307 FILLER_0_15_169
*308 FILLER_0_15_181
*309 FILLER_0_15_193
*310 FILLER_0_15_205
*311 FILLER_0_15_217
*312 FILLER_0_15_223
*313 FILLER_0_15_225
*314 FILLER_0_15_237
*315 FILLER_0_15_249
*316 FILLER_0_15_261
*317 FILLER_0_15_27
*318 FILLER_0_15_273
*319 FILLER_0_15_279
*320 FILLER_0_15_281
*321 FILLER_0_15_293
*322 FILLER_0_15_3
*323 FILLER_0_15_305
*324 FILLER_0_15_317
*325 FILLER_0_15_329
*326 FILLER_0_15_335
*327 FILLER_0_15_337
*328 FILLER_0_15_349
*329 FILLER_0_15_39
*330 FILLER_0_15_51
*331 FILLER_0_15_55
*332 FILLER_0_15_57
*333 FILLER_0_15_69
*334 FILLER_0_15_81
*335 FILLER_0_15_93
*336 FILLER_0_16_109
*337 FILLER_0_16_121
*338 FILLER_0_16_133
*339 FILLER_0_16_139
*340 FILLER_0_16_141
*341 FILLER_0_16_15
*342 FILLER_0_16_153
*343 FILLER_0_16_165
*344 FILLER_0_16_177
*345 FILLER_0_16_189
*346 FILLER_0_16_195
*347 FILLER_0_16_197
*348 FILLER_0_16_209
*349 FILLER_0_16_221
*350 FILLER_0_16_233
*351 FILLER_0_16_245
*352 FILLER_0_16_251
*353 FILLER_0_16_253
*354 FILLER_0_16_265
*355 FILLER_0_16_27
*356 FILLER_0_16_277
*357 FILLER_0_16_289
*358 FILLER_0_16_29
*359 FILLER_0_16_3
*360 FILLER_0_16_301
*361 FILLER_0_16_307
*362 FILLER_0_16_309
*363 FILLER_0_16_321
*364 FILLER_0_16_333
*365 FILLER_0_16_345
*366 FILLER_0_16_41
*367 FILLER_0_16_53
*368 FILLER_0_16_65
*369 FILLER_0_16_77
*370 FILLER_0_16_83
*371 FILLER_0_16_85
*372 FILLER_0_16_97
*373 FILLER_0_17_105
*374 FILLER_0_17_111
*375 FILLER_0_17_113
*376 FILLER_0_17_125
*377 FILLER_0_17_137
*378 FILLER_0_17_149
*379 FILLER_0_17_15
*380 FILLER_0_17_161
*381 FILLER_0_17_167
*382 FILLER_0_17_169
*383 FILLER_0_17_181
*384 FILLER_0_17_193
*385 FILLER_0_17_205
*386 FILLER_0_17_217
*387 FILLER_0_17_223
*388 FILLER_0_17_225
*389 FILLER_0_17_237
*390 FILLER_0_17_249
*391 FILLER_0_17_261
*392 FILLER_0_17_27
*393 FILLER_0_17_273
*394 FILLER_0_17_279
*395 FILLER_0_17_281
*396 FILLER_0_17_293
*397 FILLER_0_17_3
*398 FILLER_0_17_305
*399 FILLER_0_17_317
*400 FILLER_0_17_329
*401 FILLER_0_17_335
*402 FILLER_0_17_337
*403 FILLER_0_17_349
*404 FILLER_0_17_39
*405 FILLER_0_17_51
*406 FILLER_0_17_55
*407 FILLER_0_17_57
*408 FILLER_0_17_69
*409 FILLER_0_17_81
*410 FILLER_0_17_93
*411 FILLER_0_18_109
*412 FILLER_0_18_121
*413 FILLER_0_18_133
*414 FILLER_0_18_139
*415 FILLER_0_18_141
*416 FILLER_0_18_15
*417 FILLER_0_18_153
*418 FILLER_0_18_165
*419 FILLER_0_18_177
*420 FILLER_0_18_189
*421 FILLER_0_18_195
*422 FILLER_0_18_197
*423 FILLER_0_18_209
*424 FILLER_0_18_221
*425 FILLER_0_18_233
*426 FILLER_0_18_245
*427 FILLER_0_18_251
*428 FILLER_0_18_253
*429 FILLER_0_18_265
*430 FILLER_0_18_27
*431 FILLER_0_18_277
*432 FILLER_0_18_289
*433 FILLER_0_18_29
*434 FILLER_0_18_3
*435 FILLER_0_18_301
*436 FILLER_0_18_307
*437 FILLER_0_18_309
*438 FILLER_0_18_321
*439 FILLER_0_18_333
*440 FILLER_0_18_345
*441 FILLER_0_18_41
*442 FILLER_0_18_53
*443 FILLER_0_18_65
*444 FILLER_0_18_77
*445 FILLER_0_18_83
*446 FILLER_0_18_85
*447 FILLER_0_18_97
*448 FILLER_0_19_105
*449 FILLER_0_19_111
*450 FILLER_0_19_113
*451 FILLER_0_19_125
*452 FILLER_0_19_137
*453 FILLER_0_19_149
*454 FILLER_0_19_15
*455 FILLER_0_19_161
*456 FILLER_0_19_167
*457 FILLER_0_19_169
*458 FILLER_0_19_181
*459 FILLER_0_19_193
*460 FILLER_0_19_205
*461 FILLER_0_19_217
*462 FILLER_0_19_223
*463 FILLER_0_19_225
*464 FILLER_0_19_237
*465 FILLER_0_19_249
*466 FILLER_0_19_261
*467 FILLER_0_19_27
*468 FILLER_0_19_273
*469 FILLER_0_19_279
*470 FILLER_0_19_281
*471 FILLER_0_19_293
*472 FILLER_0_19_3
*473 FILLER_0_19_305
*474 FILLER_0_19_317
*475 FILLER_0_19_329
*476 FILLER_0_19_335
*477 FILLER_0_19_337
*478 FILLER_0_19_349
*479 FILLER_0_19_39
*480 FILLER_0_19_51
*481 FILLER_0_19_55
*482 FILLER_0_19_57
*483 FILLER_0_19_69
*484 FILLER_0_19_81
*485 FILLER_0_19_93
*486 FILLER_0_1_105
*487 FILLER_0_1_111
*488 FILLER_0_1_113
*489 FILLER_0_1_125
*490 FILLER_0_1_137
*491 FILLER_0_1_149
*492 FILLER_0_1_15
*493 FILLER_0_1_161
*494 FILLER_0_1_167
*495 FILLER_0_1_169
*496 FILLER_0_1_181
*497 FILLER_0_1_193
*498 FILLER_0_1_205
*499 FILLER_0_1_217
*500 FILLER_0_1_223
*501 FILLER_0_1_225
*502 FILLER_0_1_237
*503 FILLER_0_1_249
*504 FILLER_0_1_261
*505 FILLER_0_1_27
*506 FILLER_0_1_273
*507 FILLER_0_1_279
*508 FILLER_0_1_281
*509 FILLER_0_1_293
*510 FILLER_0_1_3
*511 FILLER_0_1_305
*512 FILLER_0_1_317
*513 FILLER_0_1_329
*514 FILLER_0_1_335
*515 FILLER_0_1_337
*516 FILLER_0_1_349
*517 FILLER_0_1_39
*518 FILLER_0_1_51
*519 FILLER_0_1_55
*520 FILLER_0_1_57
*521 FILLER_0_1_69
*522 FILLER_0_1_81
*523 FILLER_0_1_93
*524 FILLER_0_20_109
*525 FILLER_0_20_121
*526 FILLER_0_20_133
*527 FILLER_0_20_139
*528 FILLER_0_20_141
*529 FILLER_0_20_15
*530 FILLER_0_20_153
*531 FILLER_0_20_165
*532 FILLER_0_20_177
*533 FILLER_0_20_189
*534 FILLER_0_20_195
*535 FILLER_0_20_197
*536 FILLER_0_20_209
*537 FILLER_0_20_221
*538 FILLER_0_20_233
*539 FILLER_0_20_245
*540 FILLER_0_20_251
*541 FILLER_0_20_253
*542 FILLER_0_20_265
*543 FILLER_0_20_27
*544 FILLER_0_20_277
*545 FILLER_0_20_289
*546 FILLER_0_20_29
*547 FILLER_0_20_3
*548 FILLER_0_20_301
*549 FILLER_0_20_307
*550 FILLER_0_20_309
*551 FILLER_0_20_321
*552 FILLER_0_20_333
*553 FILLER_0_20_345
*554 FILLER_0_20_41
*555 FILLER_0_20_53
*556 FILLER_0_20_65
*557 FILLER_0_20_77
*558 FILLER_0_20_83
*559 FILLER_0_20_85
*560 FILLER_0_20_97
*561 FILLER_0_21_105
*562 FILLER_0_21_111
*563 FILLER_0_21_113
*564 FILLER_0_21_125
*565 FILLER_0_21_137
*566 FILLER_0_21_149
*567 FILLER_0_21_15
*568 FILLER_0_21_161
*569 FILLER_0_21_167
*570 FILLER_0_21_169
*571 FILLER_0_21_181
*572 FILLER_0_21_193
*573 FILLER_0_21_205
*574 FILLER_0_21_217
*575 FILLER_0_21_223
*576 FILLER_0_21_225
*577 FILLER_0_21_237
*578 FILLER_0_21_249
*579 FILLER_0_21_261
*580 FILLER_0_21_27
*581 FILLER_0_21_273
*582 FILLER_0_21_279
*583 FILLER_0_21_281
*584 FILLER_0_21_293
*585 FILLER_0_21_3
*586 FILLER_0_21_305
*587 FILLER_0_21_317
*588 FILLER_0_21_329
*589 FILLER_0_21_335
*590 FILLER_0_21_337
*591 FILLER_0_21_349
*592 FILLER_0_21_39
*593 FILLER_0_21_51
*594 FILLER_0_21_55
*595 FILLER_0_21_57
*596 FILLER_0_21_69
*597 FILLER_0_21_81
*598 FILLER_0_21_93
*599 FILLER_0_22_109
*600 FILLER_0_22_121
*601 FILLER_0_22_133
*602 FILLER_0_22_139
*603 FILLER_0_22_141
*604 FILLER_0_22_15
*605 FILLER_0_22_153
*606 FILLER_0_22_165
*607 FILLER_0_22_177
*608 FILLER_0_22_189
*609 FILLER_0_22_195
*610 FILLER_0_22_197
*611 FILLER_0_22_209
*612 FILLER_0_22_221
*613 FILLER_0_22_233
*614 FILLER_0_22_245
*615 FILLER_0_22_251
*616 FILLER_0_22_253
*617 FILLER_0_22_265
*618 FILLER_0_22_27
*619 FILLER_0_22_277
*620 FILLER_0_22_289
*621 FILLER_0_22_29
*622 FILLER_0_22_3
*623 FILLER_0_22_301
*624 FILLER_0_22_307
*625 FILLER_0_22_309
*626 FILLER_0_22_321
*627 FILLER_0_22_333
*628 FILLER_0_22_345
*629 FILLER_0_22_41
*630 FILLER_0_22_53
*631 FILLER_0_22_65
*632 FILLER_0_22_77
*633 FILLER_0_22_83
*634 FILLER_0_22_85
*635 FILLER_0_22_97
*636 FILLER_0_23_105
*637 FILLER_0_23_111
*638 FILLER_0_23_113
*639 FILLER_0_23_125
*640 FILLER_0_23_137
*641 FILLER_0_23_149
*642 FILLER_0_23_15
*643 FILLER_0_23_161
*644 FILLER_0_23_167
*645 FILLER_0_23_169
*646 FILLER_0_23_181
*647 FILLER_0_23_193
*648 FILLER_0_23_205
*649 FILLER_0_23_217
*650 FILLER_0_23_223
*651 FILLER_0_23_225
*652 FILLER_0_23_237
*653 FILLER_0_23_249
*654 FILLER_0_23_261
*655 FILLER_0_23_27
*656 FILLER_0_23_273
*657 FILLER_0_23_279
*658 FILLER_0_23_281
*659 FILLER_0_23_293
*660 FILLER_0_23_3
*661 FILLER_0_23_305
*662 FILLER_0_23_317
*663 FILLER_0_23_329
*664 FILLER_0_23_335
*665 FILLER_0_23_337
*666 FILLER_0_23_349
*667 FILLER_0_23_39
*668 FILLER_0_23_51
*669 FILLER_0_23_55
*670 FILLER_0_23_57
*671 FILLER_0_23_69
*672 FILLER_0_23_81
*673 FILLER_0_23_93
*674 FILLER_0_24_109
*675 FILLER_0_24_121
*676 FILLER_0_24_133
*677 FILLER_0_24_139
*678 FILLER_0_24_141
*679 FILLER_0_24_15
*680 FILLER_0_24_153
*681 FILLER_0_24_165
*682 FILLER_0_24_177
*683 FILLER_0_24_189
*684 FILLER_0_24_195
*685 FILLER_0_24_197
*686 FILLER_0_24_209
*687 FILLER_0_24_221
*688 FILLER_0_24_233
*689 FILLER_0_24_245
*690 FILLER_0_24_251
*691 FILLER_0_24_253
*692 FILLER_0_24_265
*693 FILLER_0_24_27
*694 FILLER_0_24_277
*695 FILLER_0_24_289
*696 FILLER_0_24_29
*697 FILLER_0_24_3
*698 FILLER_0_24_301
*699 FILLER_0_24_307
*700 FILLER_0_24_309
*701 FILLER_0_24_321
*702 FILLER_0_24_333
*703 FILLER_0_24_345
*704 FILLER_0_24_41
*705 FILLER_0_24_53
*706 FILLER_0_24_65
*707 FILLER_0_24_77
*708 FILLER_0_24_83
*709 FILLER_0_24_85
*710 FILLER_0_24_97
*711 FILLER_0_25_105
*712 FILLER_0_25_111
*713 FILLER_0_25_113
*714 FILLER_0_25_125
*715 FILLER_0_25_137
*716 FILLER_0_25_149
*717 FILLER_0_25_15
*718 FILLER_0_25_161
*719 FILLER_0_25_167
*720 FILLER_0_25_169
*721 FILLER_0_25_181
*722 FILLER_0_25_193
*723 FILLER_0_25_205
*724 FILLER_0_25_217
*725 FILLER_0_25_223
*726 FILLER_0_25_225
*727 FILLER_0_25_237
*728 FILLER_0_25_249
*729 FILLER_0_25_261
*730 FILLER_0_25_27
*731 FILLER_0_25_273
*732 FILLER_0_25_279
*733 FILLER_0_25_281
*734 FILLER_0_25_293
*735 FILLER_0_25_3
*736 FILLER_0_25_305
*737 FILLER_0_25_317
*738 FILLER_0_25_329
*739 FILLER_0_25_335
*740 FILLER_0_25_337
*741 FILLER_0_25_349
*742 FILLER_0_25_39
*743 FILLER_0_25_51
*744 FILLER_0_25_55
*745 FILLER_0_25_57
*746 FILLER_0_25_69
*747 FILLER_0_25_81
*748 FILLER_0_25_93
*749 FILLER_0_26_109
*750 FILLER_0_26_121
*751 FILLER_0_26_133
*752 FILLER_0_26_139
*753 FILLER_0_26_141
*754 FILLER_0_26_15
*755 FILLER_0_26_153
*756 FILLER_0_26_165
*757 FILLER_0_26_177
*758 FILLER_0_26_189
*759 FILLER_0_26_195
*760 FILLER_0_26_197
*761 FILLER_0_26_209
*762 FILLER_0_26_221
*763 FILLER_0_26_233
*764 FILLER_0_26_245
*765 FILLER_0_26_251
*766 FILLER_0_26_253
*767 FILLER_0_26_265
*768 FILLER_0_26_27
*769 FILLER_0_26_277
*770 FILLER_0_26_289
*771 FILLER_0_26_29
*772 FILLER_0_26_3
*773 FILLER_0_26_301
*774 FILLER_0_26_307
*775 FILLER_0_26_309
*776 FILLER_0_26_321
*777 FILLER_0_26_333
*778 FILLER_0_26_345
*779 FILLER_0_26_41
*780 FILLER_0_26_53
*781 FILLER_0_26_65
*782 FILLER_0_26_77
*783 FILLER_0_26_83
*784 FILLER_0_26_85
*785 FILLER_0_26_97
*786 FILLER_0_27_105
*787 FILLER_0_27_111
*788 FILLER_0_27_113
*789 FILLER_0_27_125
*790 FILLER_0_27_137
*791 FILLER_0_27_149
*792 FILLER_0_27_15
*793 FILLER_0_27_161
*794 FILLER_0_27_167
*795 FILLER_0_27_169
*796 FILLER_0_27_181
*797 FILLER_0_27_193
*798 FILLER_0_27_205
*799 FILLER_0_27_217
*800 FILLER_0_27_223
*801 FILLER_0_27_225
*802 FILLER_0_27_237
*803 FILLER_0_27_249
*804 FILLER_0_27_261
*805 FILLER_0_27_27
*806 FILLER_0_27_273
*807 FILLER_0_27_279
*808 FILLER_0_27_281
*809 FILLER_0_27_293
*810 FILLER_0_27_3
*811 FILLER_0_27_305
*812 FILLER_0_27_317
*813 FILLER_0_27_329
*814 FILLER_0_27_335
*815 FILLER_0_27_337
*816 FILLER_0_27_349
*817 FILLER_0_27_39
*818 FILLER_0_27_51
*819 FILLER_0_27_55
*820 FILLER_0_27_57
*821 FILLER_0_27_69
*822 FILLER_0_27_81
*823 FILLER_0_27_93
*824 FILLER_0_28_109
*825 FILLER_0_28_121
*826 FILLER_0_28_133
*827 FILLER_0_28_139
*828 FILLER_0_28_141
*829 FILLER_0_28_15
*830 FILLER_0_28_153
*831 FILLER_0_28_165
*832 FILLER_0_28_177
*833 FILLER_0_28_189
*834 FILLER_0_28_195
*835 FILLER_0_28_197
*836 FILLER_0_28_209
*837 FILLER_0_28_221
*838 FILLER_0_28_233
*839 FILLER_0_28_245
*840 FILLER_0_28_251
*841 FILLER_0_28_253
*842 FILLER_0_28_265
*843 FILLER_0_28_27
*844 FILLER_0_28_277
*845 FILLER_0_28_289
*846 FILLER_0_28_29
*847 FILLER_0_28_3
*848 FILLER_0_28_301
*849 FILLER_0_28_307
*850 FILLER_0_28_309
*851 FILLER_0_28_321
*852 FILLER_0_28_333
*853 FILLER_0_28_345
*854 FILLER_0_28_41
*855 FILLER_0_28_53
*856 FILLER_0_28_65
*857 FILLER_0_28_77
*858 FILLER_0_28_83
*859 FILLER_0_28_85
*860 FILLER_0_28_97
*861 FILLER_0_29_105
*862 FILLER_0_29_111
*863 FILLER_0_29_113
*864 FILLER_0_29_125
*865 FILLER_0_29_137
*866 FILLER_0_29_149
*867 FILLER_0_29_15
*868 FILLER_0_29_161
*869 FILLER_0_29_167
*870 FILLER_0_29_169
*871 FILLER_0_29_181
*872 FILLER_0_29_193
*873 FILLER_0_29_205
*874 FILLER_0_29_217
*875 FILLER_0_29_223
*876 FILLER_0_29_225
*877 FILLER_0_29_237
*878 FILLER_0_29_249
*879 FILLER_0_29_261
*880 FILLER_0_29_27
*881 FILLER_0_29_273
*882 FILLER_0_29_279
*883 FILLER_0_29_281
*884 FILLER_0_29_293
*885 FILLER_0_29_3
*886 FILLER_0_29_305
*887 FILLER_0_29_317
*888 FILLER_0_29_329
*889 FILLER_0_29_335
*890 FILLER_0_29_337
*891 FILLER_0_29_349
*892 FILLER_0_29_39
*893 FILLER_0_29_51
*894 FILLER_0_29_55
*895 FILLER_0_29_57
*896 FILLER_0_29_69
*897 FILLER_0_29_81
*898 FILLER_0_29_93
*899 FILLER_0_2_109
*900 FILLER_0_2_121
*901 FILLER_0_2_133
*902 FILLER_0_2_139
*903 FILLER_0_2_141
*904 FILLER_0_2_15
*905 FILLER_0_2_153
*906 FILLER_0_2_165
*907 FILLER_0_2_177
*908 FILLER_0_2_189
*909 FILLER_0_2_195
*910 FILLER_0_2_197
*911 FILLER_0_2_209
*912 FILLER_0_2_221
*913 FILLER_0_2_233
*914 FILLER_0_2_245
*915 FILLER_0_2_251
*916 FILLER_0_2_253
*917 FILLER_0_2_265
*918 FILLER_0_2_27
*919 FILLER_0_2_277
*920 FILLER_0_2_289
*921 FILLER_0_2_29
*922 FILLER_0_2_3
*923 FILLER_0_2_301
*924 FILLER_0_2_307
*925 FILLER_0_2_309
*926 FILLER_0_2_321
*927 FILLER_0_2_333
*928 FILLER_0_2_345
*929 FILLER_0_2_41
*930 FILLER_0_2_53
*931 FILLER_0_2_65
*932 FILLER_0_2_77
*933 FILLER_0_2_83
*934 FILLER_0_2_85
*935 FILLER_0_2_97
*936 FILLER_0_30_109
*937 FILLER_0_30_121
*938 FILLER_0_30_133
*939 FILLER_0_30_139
*940 FILLER_0_30_141
*941 FILLER_0_30_15
*942 FILLER_0_30_153
*943 FILLER_0_30_165
*944 FILLER_0_30_177
*945 FILLER_0_30_189
*946 FILLER_0_30_195
*947 FILLER_0_30_197
*948 FILLER_0_30_209
*949 FILLER_0_30_221
*950 FILLER_0_30_233
*951 FILLER_0_30_245
*952 FILLER_0_30_251
*953 FILLER_0_30_253
*954 FILLER_0_30_265
*955 FILLER_0_30_27
*956 FILLER_0_30_277
*957 FILLER_0_30_289
*958 FILLER_0_30_29
*959 FILLER_0_30_3
*960 FILLER_0_30_301
*961 FILLER_0_30_307
*962 FILLER_0_30_309
*963 FILLER_0_30_321
*964 FILLER_0_30_333
*965 FILLER_0_30_345
*966 FILLER_0_30_41
*967 FILLER_0_30_53
*968 FILLER_0_30_65
*969 FILLER_0_30_77
*970 FILLER_0_30_83
*971 FILLER_0_30_85
*972 FILLER_0_30_97
*973 FILLER_0_31_105
*974 FILLER_0_31_111
*975 FILLER_0_31_113
*976 FILLER_0_31_125
*977 FILLER_0_31_137
*978 FILLER_0_31_149
*979 FILLER_0_31_15
*980 FILLER_0_31_161
*981 FILLER_0_31_167
*982 FILLER_0_31_169
*983 FILLER_0_31_181
*984 FILLER_0_31_193
*985 FILLER_0_31_205
*986 FILLER_0_31_217
*987 FILLER_0_31_223
*988 FILLER_0_31_225
*989 FILLER_0_31_237
*990 FILLER_0_31_249
*991 FILLER_0_31_261
*992 FILLER_0_31_27
*993 FILLER_0_31_273
*994 FILLER_0_31_279
*995 FILLER_0_31_281
*996 FILLER_0_31_293
*997 FILLER_0_31_3
*998 FILLER_0_31_305
*999 FILLER_0_31_317
*1000 FILLER_0_31_329
*1001 FILLER_0_31_335
*1002 FILLER_0_31_337
*1003 FILLER_0_31_349
*1004 FILLER_0_31_39
*1005 FILLER_0_31_51
*1006 FILLER_0_31_55
*1007 FILLER_0_31_57
*1008 FILLER_0_31_69
*1009 FILLER_0_31_81
*1010 FILLER_0_31_93
*1011 FILLER_0_32_109
*1012 FILLER_0_32_121
*1013 FILLER_0_32_133
*1014 FILLER_0_32_139
*1015 FILLER_0_32_141
*1016 FILLER_0_32_15
*1017 FILLER_0_32_153
*1018 FILLER_0_32_165
*1019 FILLER_0_32_177
*1020 FILLER_0_32_189
*1021 FILLER_0_32_195
*1022 FILLER_0_32_197
*1023 FILLER_0_32_209
*1024 FILLER_0_32_221
*1025 FILLER_0_32_233
*1026 FILLER_0_32_245
*1027 FILLER_0_32_251
*1028 FILLER_0_32_253
*1029 FILLER_0_32_265
*1030 FILLER_0_32_27
*1031 FILLER_0_32_277
*1032 FILLER_0_32_289
*1033 FILLER_0_32_29
*1034 FILLER_0_32_3
*1035 FILLER_0_32_301
*1036 FILLER_0_32_307
*1037 FILLER_0_32_309
*1038 FILLER_0_32_321
*1039 FILLER_0_32_333
*1040 FILLER_0_32_345
*1041 FILLER_0_32_41
*1042 FILLER_0_32_53
*1043 FILLER_0_32_65
*1044 FILLER_0_32_77
*1045 FILLER_0_32_83
*1046 FILLER_0_32_85
*1047 FILLER_0_32_97
*1048 FILLER_0_33_105
*1049 FILLER_0_33_111
*1050 FILLER_0_33_113
*1051 FILLER_0_33_125
*1052 FILLER_0_33_137
*1053 FILLER_0_33_149
*1054 FILLER_0_33_15
*1055 FILLER_0_33_161
*1056 FILLER_0_33_167
*1057 FILLER_0_33_169
*1058 FILLER_0_33_181
*1059 FILLER_0_33_193
*1060 FILLER_0_33_205
*1061 FILLER_0_33_217
*1062 FILLER_0_33_223
*1063 FILLER_0_33_225
*1064 FILLER_0_33_237
*1065 FILLER_0_33_249
*1066 FILLER_0_33_261
*1067 FILLER_0_33_27
*1068 FILLER_0_33_273
*1069 FILLER_0_33_279
*1070 FILLER_0_33_281
*1071 FILLER_0_33_293
*1072 FILLER_0_33_3
*1073 FILLER_0_33_305
*1074 FILLER_0_33_317
*1075 FILLER_0_33_329
*1076 FILLER_0_33_335
*1077 FILLER_0_33_337
*1078 FILLER_0_33_349
*1079 FILLER_0_33_39
*1080 FILLER_0_33_51
*1081 FILLER_0_33_55
*1082 FILLER_0_33_57
*1083 FILLER_0_33_69
*1084 FILLER_0_33_81
*1085 FILLER_0_33_93
*1086 FILLER_0_34_109
*1087 FILLER_0_34_121
*1088 FILLER_0_34_133
*1089 FILLER_0_34_139
*1090 FILLER_0_34_141
*1091 FILLER_0_34_15
*1092 FILLER_0_34_153
*1093 FILLER_0_34_165
*1094 FILLER_0_34_191
*1095 FILLER_0_34_195
*1096 FILLER_0_34_197
*1097 FILLER_0_34_221
*1098 FILLER_0_34_233
*1099 FILLER_0_34_245
*1100 FILLER_0_34_251
*1101 FILLER_0_34_253
*1102 FILLER_0_34_265
*1103 FILLER_0_34_27
*1104 FILLER_0_34_277
*1105 FILLER_0_34_289
*1106 FILLER_0_34_29
*1107 FILLER_0_34_3
*1108 FILLER_0_34_301
*1109 FILLER_0_34_307
*1110 FILLER_0_34_309
*1111 FILLER_0_34_321
*1112 FILLER_0_34_333
*1113 FILLER_0_34_345
*1114 FILLER_0_34_41
*1115 FILLER_0_34_53
*1116 FILLER_0_34_65
*1117 FILLER_0_34_77
*1118 FILLER_0_34_83
*1119 FILLER_0_34_85
*1120 FILLER_0_34_97
*1121 FILLER_0_35_105
*1122 FILLER_0_35_111
*1123 FILLER_0_35_113
*1124 FILLER_0_35_125
*1125 FILLER_0_35_137
*1126 FILLER_0_35_149
*1127 FILLER_0_35_15
*1128 FILLER_0_35_161
*1129 FILLER_0_35_167
*1130 FILLER_0_35_169
*1131 FILLER_0_35_181
*1132 FILLER_0_35_186
*1133 FILLER_0_35_198
*1134 FILLER_0_35_204
*1135 FILLER_0_35_208
*1136 FILLER_0_35_220
*1137 FILLER_0_35_225
*1138 FILLER_0_35_237
*1139 FILLER_0_35_249
*1140 FILLER_0_35_261
*1141 FILLER_0_35_27
*1142 FILLER_0_35_273
*1143 FILLER_0_35_279
*1144 FILLER_0_35_281
*1145 FILLER_0_35_293
*1146 FILLER_0_35_3
*1147 FILLER_0_35_305
*1148 FILLER_0_35_317
*1149 FILLER_0_35_329
*1150 FILLER_0_35_335
*1151 FILLER_0_35_337
*1152 FILLER_0_35_349
*1153 FILLER_0_35_39
*1154 FILLER_0_35_51
*1155 FILLER_0_35_55
*1156 FILLER_0_35_57
*1157 FILLER_0_35_69
*1158 FILLER_0_35_81
*1159 FILLER_0_35_93
*1160 FILLER_0_36_109
*1161 FILLER_0_36_121
*1162 FILLER_0_36_133
*1163 FILLER_0_36_139
*1164 FILLER_0_36_141
*1165 FILLER_0_36_15
*1166 FILLER_0_36_153
*1167 FILLER_0_36_165
*1168 FILLER_0_36_177
*1169 FILLER_0_36_197
*1170 FILLER_0_36_216
*1171 FILLER_0_36_228
*1172 FILLER_0_36_240
*1173 FILLER_0_36_253
*1174 FILLER_0_36_265
*1175 FILLER_0_36_27
*1176 FILLER_0_36_277
*1177 FILLER_0_36_289
*1178 FILLER_0_36_29
*1179 FILLER_0_36_3
*1180 FILLER_0_36_301
*1181 FILLER_0_36_307
*1182 FILLER_0_36_309
*1183 FILLER_0_36_321
*1184 FILLER_0_36_333
*1185 FILLER_0_36_345
*1186 FILLER_0_36_41
*1187 FILLER_0_36_53
*1188 FILLER_0_36_65
*1189 FILLER_0_36_77
*1190 FILLER_0_36_83
*1191 FILLER_0_36_85
*1192 FILLER_0_36_97
*1193 FILLER_0_37_105
*1194 FILLER_0_37_111
*1195 FILLER_0_37_113
*1196 FILLER_0_37_125
*1197 FILLER_0_37_137
*1198 FILLER_0_37_149
*1199 FILLER_0_37_15
*1200 FILLER_0_37_189
*1201 FILLER_0_37_201
*1202 FILLER_0_37_222
*1203 FILLER_0_37_228
*1204 FILLER_0_37_240
*1205 FILLER_0_37_248
*1206 FILLER_0_37_260
*1207 FILLER_0_37_266
*1208 FILLER_0_37_27
*1209 FILLER_0_37_279
*1210 FILLER_0_37_284
*1211 FILLER_0_37_295
*1212 FILLER_0_37_3
*1213 FILLER_0_37_307
*1214 FILLER_0_37_319
*1215 FILLER_0_37_331
*1216 FILLER_0_37_335
*1217 FILLER_0_37_337
*1218 FILLER_0_37_349
*1219 FILLER_0_37_39
*1220 FILLER_0_37_51
*1221 FILLER_0_37_55
*1222 FILLER_0_37_57
*1223 FILLER_0_37_69
*1224 FILLER_0_37_81
*1225 FILLER_0_37_93
*1226 FILLER_0_38_104
*1227 FILLER_0_38_110
*1228 FILLER_0_38_116
*1229 FILLER_0_38_122
*1230 FILLER_0_38_128
*1231 FILLER_0_38_134
*1232 FILLER_0_38_15
*1233 FILLER_0_38_167
*1234 FILLER_0_38_169
*1235 FILLER_0_38_177
*1236 FILLER_0_38_197
*1237 FILLER_0_38_222
*1238 FILLER_0_38_242
*1239 FILLER_0_38_246
*1240 FILLER_0_38_27
*1241 FILLER_0_38_281
*1242 FILLER_0_38_29
*1243 FILLER_0_38_3
*1244 FILLER_0_38_304
*1245 FILLER_0_38_309
*1246 FILLER_0_38_321
*1247 FILLER_0_38_333
*1248 FILLER_0_38_337
*1249 FILLER_0_38_349
*1250 FILLER_0_38_41
*1251 FILLER_0_38_53
*1252 FILLER_0_38_57
*1253 FILLER_0_38_68
*1254 FILLER_0_38_74
*1255 FILLER_0_38_80
*1256 FILLER_0_38_88
*1257 FILLER_0_38_92
*1258 FILLER_0_38_98
*1259 FILLER_0_3_105
*1260 FILLER_0_3_111
*1261 FILLER_0_3_113
*1262 FILLER_0_3_125
*1263 FILLER_0_3_137
*1264 FILLER_0_3_149
*1265 FILLER_0_3_15
*1266 FILLER_0_3_161
*1267 FILLER_0_3_167
*1268 FILLER_0_3_169
*1269 FILLER_0_3_181
*1270 FILLER_0_3_193
*1271 FILLER_0_3_205
*1272 FILLER_0_3_217
*1273 FILLER_0_3_223
*1274 FILLER_0_3_225
*1275 FILLER_0_3_237
*1276 FILLER_0_3_249
*1277 FILLER_0_3_261
*1278 FILLER_0_3_27
*1279 FILLER_0_3_273
*1280 FILLER_0_3_279
*1281 FILLER_0_3_281
*1282 FILLER_0_3_293
*1283 FILLER_0_3_3
*1284 FILLER_0_3_305
*1285 FILLER_0_3_317
*1286 FILLER_0_3_329
*1287 FILLER_0_3_335
*1288 FILLER_0_3_337
*1289 FILLER_0_3_349
*1290 FILLER_0_3_39
*1291 FILLER_0_3_51
*1292 FILLER_0_3_55
*1293 FILLER_0_3_57
*1294 FILLER_0_3_69
*1295 FILLER_0_3_81
*1296 FILLER_0_3_93
*1297 FILLER_0_4_109
*1298 FILLER_0_4_121
*1299 FILLER_0_4_133
*1300 FILLER_0_4_139
*1301 FILLER_0_4_141
*1302 FILLER_0_4_15
*1303 FILLER_0_4_153
*1304 FILLER_0_4_165
*1305 FILLER_0_4_177
*1306 FILLER_0_4_189
*1307 FILLER_0_4_195
*1308 FILLER_0_4_197
*1309 FILLER_0_4_209
*1310 FILLER_0_4_221
*1311 FILLER_0_4_233
*1312 FILLER_0_4_245
*1313 FILLER_0_4_251
*1314 FILLER_0_4_253
*1315 FILLER_0_4_265
*1316 FILLER_0_4_27
*1317 FILLER_0_4_277
*1318 FILLER_0_4_289
*1319 FILLER_0_4_29
*1320 FILLER_0_4_3
*1321 FILLER_0_4_301
*1322 FILLER_0_4_307
*1323 FILLER_0_4_309
*1324 FILLER_0_4_321
*1325 FILLER_0_4_333
*1326 FILLER_0_4_345
*1327 FILLER_0_4_41
*1328 FILLER_0_4_53
*1329 FILLER_0_4_65
*1330 FILLER_0_4_77
*1331 FILLER_0_4_83
*1332 FILLER_0_4_85
*1333 FILLER_0_4_97
*1334 FILLER_0_5_105
*1335 FILLER_0_5_111
*1336 FILLER_0_5_113
*1337 FILLER_0_5_125
*1338 FILLER_0_5_137
*1339 FILLER_0_5_149
*1340 FILLER_0_5_15
*1341 FILLER_0_5_161
*1342 FILLER_0_5_167
*1343 FILLER_0_5_169
*1344 FILLER_0_5_181
*1345 FILLER_0_5_193
*1346 FILLER_0_5_205
*1347 FILLER_0_5_217
*1348 FILLER_0_5_223
*1349 FILLER_0_5_225
*1350 FILLER_0_5_237
*1351 FILLER_0_5_249
*1352 FILLER_0_5_261
*1353 FILLER_0_5_27
*1354 FILLER_0_5_273
*1355 FILLER_0_5_279
*1356 FILLER_0_5_281
*1357 FILLER_0_5_293
*1358 FILLER_0_5_3
*1359 FILLER_0_5_305
*1360 FILLER_0_5_317
*1361 FILLER_0_5_329
*1362 FILLER_0_5_335
*1363 FILLER_0_5_337
*1364 FILLER_0_5_349
*1365 FILLER_0_5_39
*1366 FILLER_0_5_51
*1367 FILLER_0_5_55
*1368 FILLER_0_5_57
*1369 FILLER_0_5_69
*1370 FILLER_0_5_81
*1371 FILLER_0_5_93
*1372 FILLER_0_6_109
*1373 FILLER_0_6_121
*1374 FILLER_0_6_133
*1375 FILLER_0_6_139
*1376 FILLER_0_6_141
*1377 FILLER_0_6_15
*1378 FILLER_0_6_153
*1379 FILLER_0_6_165
*1380 FILLER_0_6_177
*1381 FILLER_0_6_189
*1382 FILLER_0_6_195
*1383 FILLER_0_6_197
*1384 FILLER_0_6_209
*1385 FILLER_0_6_221
*1386 FILLER_0_6_233
*1387 FILLER_0_6_245
*1388 FILLER_0_6_251
*1389 FILLER_0_6_253
*1390 FILLER_0_6_265
*1391 FILLER_0_6_27
*1392 FILLER_0_6_277
*1393 FILLER_0_6_289
*1394 FILLER_0_6_29
*1395 FILLER_0_6_3
*1396 FILLER_0_6_301
*1397 FILLER_0_6_307
*1398 FILLER_0_6_309
*1399 FILLER_0_6_321
*1400 FILLER_0_6_333
*1401 FILLER_0_6_345
*1402 FILLER_0_6_41
*1403 FILLER_0_6_53
*1404 FILLER_0_6_65
*1405 FILLER_0_6_77
*1406 FILLER_0_6_83
*1407 FILLER_0_6_85
*1408 FILLER_0_6_97
*1409 FILLER_0_7_105
*1410 FILLER_0_7_111
*1411 FILLER_0_7_113
*1412 FILLER_0_7_125
*1413 FILLER_0_7_137
*1414 FILLER_0_7_149
*1415 FILLER_0_7_15
*1416 FILLER_0_7_161
*1417 FILLER_0_7_167
*1418 FILLER_0_7_169
*1419 FILLER_0_7_181
*1420 FILLER_0_7_193
*1421 FILLER_0_7_205
*1422 FILLER_0_7_217
*1423 FILLER_0_7_223
*1424 FILLER_0_7_225
*1425 FILLER_0_7_237
*1426 FILLER_0_7_249
*1427 FILLER_0_7_261
*1428 FILLER_0_7_27
*1429 FILLER_0_7_273
*1430 FILLER_0_7_279
*1431 FILLER_0_7_281
*1432 FILLER_0_7_293
*1433 FILLER_0_7_3
*1434 FILLER_0_7_305
*1435 FILLER_0_7_317
*1436 FILLER_0_7_329
*1437 FILLER_0_7_335
*1438 FILLER_0_7_337
*1439 FILLER_0_7_349
*1440 FILLER_0_7_39
*1441 FILLER_0_7_51
*1442 FILLER_0_7_55
*1443 FILLER_0_7_57
*1444 FILLER_0_7_69
*1445 FILLER_0_7_81
*1446 FILLER_0_7_93
*1447 FILLER_0_8_109
*1448 FILLER_0_8_121
*1449 FILLER_0_8_133
*1450 FILLER_0_8_139
*1451 FILLER_0_8_141
*1452 FILLER_0_8_15
*1453 FILLER_0_8_153
*1454 FILLER_0_8_165
*1455 FILLER_0_8_177
*1456 FILLER_0_8_189
*1457 FILLER_0_8_195
*1458 FILLER_0_8_197
*1459 FILLER_0_8_209
*1460 FILLER_0_8_221
*1461 FILLER_0_8_233
*1462 FILLER_0_8_245
*1463 FILLER_0_8_251