*SPEF "ieee 1481-1999"
*DESIGN "tt_um_czlucius_alu"
*DATE "11:11:11 Fri 11 11, 1111"
*VENDOR "OpenRCX"
*PROGRAM "Parallel Extraction"
*VERSION "1.0"
*DESIGN_FLOW "NAME_SCOPE LOCAL" "PIN_CAP NONE"
*DIVIDER /
*DELIMITER :
*BUS_DELIMITER []
*T_UNIT 1 NS
*C_UNIT 1 PF
*R_UNIT 1 OHM
*L_UNIT 1 HENRY

*NAME_MAP
*3 clk
*4 ena
*5 rst_n
*6 ui_in[0]
*7 ui_in[1]
*8 ui_in[2]
*9 ui_in[3]
*10 ui_in[4]
*11 ui_in[5]
*12 ui_in[6]
*13 ui_in[7]
*14 uio_in[0]
*15 uio_in[1]
*16 uio_in[2]
*17 uio_in[3]
*18 uio_in[4]
*19 uio_in[5]
*20 uio_in[6]
*21 uio_in[7]
*22 net18
*23 net19
*24 net20
*25 net21
*26 net22
*27 net23
*28 net24
*29 net25
*30 net26
*31 net27
*32 net28
*33 net29
*34 net30
*35 net31
*36 net32
*37 net33
*38 uo_out[0]
*39 uo_out[1]
*40 uo_out[2]
*41 uo_out[3]
*42 uo_out[4]
*43 uo_out[5]
*44 uo_out[6]
*45 uo_out[7]
*46 _000_
*47 _001_
*48 _002_
*49 _003_
*50 _004_
*51 _005_
*52 _006_
*53 _007_
*54 _008_
*55 _009_
*56 _010_
*57 _011_
*58 _012_
*59 _013_
*60 _014_
*61 _015_
*62 _016_
*63 _017_
*64 _018_
*65 _019_
*66 _020_
*67 _021_
*68 _022_
*69 _023_
*70 _024_
*71 _025_
*72 _026_
*73 _027_
*74 _028_
*75 _029_
*76 _030_
*77 _031_
*78 _032_
*79 _033_
*80 _034_
*81 _035_
*82 _036_
*83 _037_
*84 _038_
*85 _039_
*86 _040_
*87 _041_
*88 _042_
*89 _043_
*90 _044_
*91 _045_
*92 _046_
*93 _047_
*94 _048_
*95 _049_
*96 _050_
*97 _051_
*98 _052_
*99 _053_
*100 _054_
*101 _055_
*102 _056_
*103 _057_
*104 _058_
*105 _059_
*106 _060_
*107 _061_
*108 _062_
*109 _063_
*110 _064_
*111 _065_
*112 _066_
*113 _067_
*114 _068_
*115 _069_
*116 _070_
*117 _071_
*118 _072_
*119 _073_
*120 _074_
*121 _075_
*122 _076_
*123 _077_
*124 _078_
*125 _079_
*126 _080_
*127 _081_
*128 _082_
*129 _083_
*130 _084_
*131 _085_
*132 _086_
*133 _087_
*134 _088_
*135 _089_
*136 _090_
*137 _091_
*138 _092_
*139 _093_
*140 _094_
*141 _095_
*142 _096_
*143 _097_
*144 _098_
*145 _099_
*146 _100_
*147 _101_
*148 _102_
*149 _103_
*150 _104_
*151 _105_
*152 _106_
*153 _107_
*154 _108_
*155 _109_
*156 _110_
*157 _111_
*158 _112_
*159 _113_
*160 _114_
*161 _115_
*162 _116_
*163 _117_
*164 _118_
*165 _119_
*166 _120_
*167 _121_
*168 _122_
*169 _123_
*170 _124_
*171 _125_
*172 _126_
*173 _127_
*174 _128_
*175 _129_
*176 _130_
*177 _131_
*178 _132_
*179 _133_
*180 _134_
*181 _135_
*182 _136_
*183 _137_
*184 _138_
*185 _139_
*186 _140_
*187 _141_
*188 _142_
*189 _143_
*190 _144_
*191 _145_
*192 _146_
*193 _147_
*194 _148_
*195 _149_
*196 _150_
*197 _151_
*198 _152_
*199 _153_
*200 _154_
*201 _155_
*202 _156_
*203 _157_
*204 _158_
*205 _159_
*206 _160_
*207 _161_
*208 _162_
*209 _163_
*210 _164_
*211 _165_
*212 _166_
*213 _167_
*214 _168_
*215 _169_
*216 _170_
*217 _171_
*218 _172_
*219 _173_
*220 _174_
*221 _175_
*222 _176_
*223 _177_
*224 _178_
*225 _179_
*226 _180_
*227 _181_
*228 _182_
*229 _183_
*230 _184_
*231 _185_
*232 _186_
*233 _187_
*234 _188_
*235 _189_
*236 _190_
*237 _191_
*238 _192_
*239 _193_
*240 _194_
*241 _195_
*242 _196_
*243 _197_
*244 _198_
*245 _199_
*246 _200_
*247 _201_
*248 _202_
*249 _203_
*250 _204_
*251 _205_
*252 _206_
*253 _207_
*254 _208_
*255 _209_
*256 _210_
*257 _211_
*258 _212_
*259 _213_
*260 _214_
*261 _215_
*262 _216_
*263 _217_
*264 _218_
*265 _219_
*266 _220_
*267 _221_
*268 _222_
*269 _223_
*270 _224_
*271 _225_
*272 _226_
*273 _227_
*274 _228_
*275 _229_
*276 _230_
*277 _231_
*278 _232_
*279 _233_
*280 _234_
*281 _235_
*282 _236_
*283 _237_
*284 _238_
*285 _239_
*286 _240_
*287 _241_
*288 _242_
*289 _243_
*290 _244_
*291 _245_
*292 _246_
*293 net1
*294 net10
*295 net11
*296 net12
*297 net13
*298 net14
*299 net15
*300 net16
*301 net17
*302 net2
*303 net3
*304 net4
*305 net5
*306 net6
*307 net7
*308 net8
*309 net9
*310 FILLER_0_0_109
*311 FILLER_0_0_113
*312 FILLER_0_0_125
*313 FILLER_0_0_137
*314 FILLER_0_0_141
*315 FILLER_0_0_15
*316 FILLER_0_0_153
*317 FILLER_0_0_165
*318 FILLER_0_0_169
*319 FILLER_0_0_181
*320 FILLER_0_0_193
*321 FILLER_0_0_197
*322 FILLER_0_0_209
*323 FILLER_0_0_221
*324 FILLER_0_0_225
*325 FILLER_0_0_237
*326 FILLER_0_0_249
*327 FILLER_0_0_253
*328 FILLER_0_0_265
*329 FILLER_0_0_27
*330 FILLER_0_0_277
*331 FILLER_0_0_281
*332 FILLER_0_0_29
*333 FILLER_0_0_293
*334 FILLER_0_0_3
*335 FILLER_0_0_305
*336 FILLER_0_0_309
*337 FILLER_0_0_321
*338 FILLER_0_0_333
*339 FILLER_0_0_337
*340 FILLER_0_0_349
*341 FILLER_0_0_41
*342 FILLER_0_0_53
*343 FILLER_0_0_57
*344 FILLER_0_0_69
*345 FILLER_0_0_81
*346 FILLER_0_0_85
*347 FILLER_0_0_97
*348 FILLER_0_10_109
*349 FILLER_0_10_121
*350 FILLER_0_10_133
*351 FILLER_0_10_139
*352 FILLER_0_10_141
*353 FILLER_0_10_15
*354 FILLER_0_10_153
*355 FILLER_0_10_165
*356 FILLER_0_10_177
*357 FILLER_0_10_189
*358 FILLER_0_10_195
*359 FILLER_0_10_197
*360 FILLER_0_10_209
*361 FILLER_0_10_221
*362 FILLER_0_10_233
*363 FILLER_0_10_245
*364 FILLER_0_10_251
*365 FILLER_0_10_253
*366 FILLER_0_10_265
*367 FILLER_0_10_27
*368 FILLER_0_10_277
*369 FILLER_0_10_289
*370 FILLER_0_10_29
*371 FILLER_0_10_3
*372 FILLER_0_10_301
*373 FILLER_0_10_307
*374 FILLER_0_10_309
*375 FILLER_0_10_321
*376 FILLER_0_10_333
*377 FILLER_0_10_345
*378 FILLER_0_10_41
*379 FILLER_0_10_53
*380 FILLER_0_10_65
*381 FILLER_0_10_77
*382 FILLER_0_10_83
*383 FILLER_0_10_85
*384 FILLER_0_10_97
*385 FILLER_0_11_105
*386 FILLER_0_11_111
*387 FILLER_0_11_113
*388 FILLER_0_11_125
*389 FILLER_0_11_137
*390 FILLER_0_11_149
*391 FILLER_0_11_15
*392 FILLER_0_11_161
*393 FILLER_0_11_167
*394 FILLER_0_11_169
*395 FILLER_0_11_181
*396 FILLER_0_11_193
*397 FILLER_0_11_205
*398 FILLER_0_11_217
*399 FILLER_0_11_223
*400 FILLER_0_11_225
*401 FILLER_0_11_237
*402 FILLER_0_11_249
*403 FILLER_0_11_261
*404 FILLER_0_11_27
*405 FILLER_0_11_273
*406 FILLER_0_11_279
*407 FILLER_0_11_281
*408 FILLER_0_11_293
*409 FILLER_0_11_3
*410 FILLER_0_11_305
*411 FILLER_0_11_317
*412 FILLER_0_11_329
*413 FILLER_0_11_335
*414 FILLER_0_11_337
*415 FILLER_0_11_349
*416 FILLER_0_11_39
*417 FILLER_0_11_51
*418 FILLER_0_11_55
*419 FILLER_0_11_57
*420 FILLER_0_11_69
*421 FILLER_0_11_81
*422 FILLER_0_11_93
*423 FILLER_0_12_109
*424 FILLER_0_12_121
*425 FILLER_0_12_133
*426 FILLER_0_12_139
*427 FILLER_0_12_141
*428 FILLER_0_12_15
*429 FILLER_0_12_153
*430 FILLER_0_12_165
*431 FILLER_0_12_177
*432 FILLER_0_12_189
*433 FILLER_0_12_195
*434 FILLER_0_12_197
*435 FILLER_0_12_209
*436 FILLER_0_12_221
*437 FILLER_0_12_233
*438 FILLER_0_12_245
*439 FILLER_0_12_251
*440 FILLER_0_12_253
*441 FILLER_0_12_265
*442 FILLER_0_12_27
*443 FILLER_0_12_277
*444 FILLER_0_12_289
*445 FILLER_0_12_29
*446 FILLER_0_12_3
*447 FILLER_0_12_301
*448 FILLER_0_12_307
*449 FILLER_0_12_309
*450 FILLER_0_12_321
*451 FILLER_0_12_333
*452 FILLER_0_12_345
*453 FILLER_0_12_41
*454 FILLER_0_12_53
*455 FILLER_0_12_65
*456 FILLER_0_12_77
*457 FILLER_0_12_83
*458 FILLER_0_12_85
*459 FILLER_0_12_97
*460 FILLER_0_13_105
*461 FILLER_0_13_111
*462 FILLER_0_13_113
*463 FILLER_0_13_125
*464 FILLER_0_13_137
*465 FILLER_0_13_149
*466 FILLER_0_13_15
*467 FILLER_0_13_161
*468 FILLER_0_13_167
*469 FILLER_0_13_169
*470 FILLER_0_13_181
*471 FILLER_0_13_193
*472 FILLER_0_13_205
*473 FILLER_0_13_217
*474 FILLER_0_13_223
*475 FILLER_0_13_225
*476 FILLER_0_13_237
*477 FILLER_0_13_249
*478 FILLER_0_13_261
*479 FILLER_0_13_27
*480 FILLER_0_13_273
*481 FILLER_0_13_279
*482 FILLER_0_13_281
*483 FILLER_0_13_293
*484 FILLER_0_13_3
*485 FILLER_0_13_305
*486 FILLER_0_13_317
*487 FILLER_0_13_329
*488 FILLER_0_13_335
*489 FILLER_0_13_337
*490 FILLER_0_13_349
*491 FILLER_0_13_39
*492 FILLER_0_13_51
*493 FILLER_0_13_55
*494 FILLER_0_13_57
*495 FILLER_0_13_69
*496 FILLER_0_13_81
*497 FILLER_0_13_93
*498 FILLER_0_14_109
*499 FILLER_0_14_121
*500 FILLER_0_14_133
*501 FILLER_0_14_139
*502 FILLER_0_14_141
*503 FILLER_0_14_15
*504 FILLER_0_14_153
*505 FILLER_0_14_165
*506 FILLER_0_14_177
*507 FILLER_0_14_189
*508 FILLER_0_14_195
*509 FILLER_0_14_197
*510 FILLER_0_14_209
*511 FILLER_0_14_221
*512 FILLER_0_14_233
*513 FILLER_0_14_245
*514 FILLER_0_14_251
*515 FILLER_0_14_253
*516 FILLER_0_14_265
*517 FILLER_0_14_27
*518 FILLER_0_14_277
*519 FILLER_0_14_289
*520 FILLER_0_14_29
*521 FILLER_0_14_3
*522 FILLER_0_14_301
*523 FILLER_0_14_307
*524 FILLER_0_14_309
*525 FILLER_0_14_321
*526 FILLER_0_14_333
*527 FILLER_0_14_345
*528 FILLER_0_14_41
*529 FILLER_0_14_53
*530 FILLER_0_14_65
*531 FILLER_0_14_77
*532 FILLER_0_14_83
*533 FILLER_0_14_85
*534 FILLER_0_14_97
*535 FILLER_0_15_105
*536 FILLER_0_15_111
*537 FILLER_0_15_113
*538 FILLER_0_15_125
*539 FILLER_0_15_137
*540 FILLER_0_15_149
*541 FILLER_0_15_15
*542 FILLER_0_15_161
*543 FILLER_0_15_167
*544 FILLER_0_15_169
*545 FILLER_0_15_181
*546 FILLER_0_15_193
*547 FILLER_0_15_205
*548 FILLER_0_15_217
*549 FILLER_0_15_223
*550 FILLER_0_15_225
*551 FILLER_0_15_237
*552 FILLER_0_15_249
*553 FILLER_0_15_261
*554 FILLER_0_15_27
*555 FILLER_0_15_273
*556 FILLER_0_15_279
*557 FILLER_0_15_281
*558 FILLER_0_15_293
*559 FILLER_0_15_3
*560 FILLER_0_15_305
*561 FILLER_0_15_317
*562 FILLER_0_15_329
*563 FILLER_0_15_335
*564 FILLER_0_15_337
*565 FILLER_0_15_349
*566 FILLER_0_15_39
*567 FILLER_0_15_51
*568 FILLER_0_15_55
*569 FILLER_0_15_57
*570 FILLER_0_15_69
*571 FILLER_0_15_81
*572 FILLER_0_15_93
*573 FILLER_0_16_109
*574 FILLER_0_16_121
*575 FILLER_0_16_133
*576 FILLER_0_16_139
*577 FILLER_0_16_141
*578 FILLER_0_16_15
*579 FILLER_0_16_153
*580 FILLER_0_16_165
*581 FILLER_0_16_177
*582 FILLER_0_16_189
*583 FILLER_0_16_195
*584 FILLER_0_16_197
*585 FILLER_0_16_209
*586 FILLER_0_16_221
*587 FILLER_0_16_233
*588 FILLER_0_16_245
*589 FILLER_0_16_251
*590 FILLER_0_16_253
*591 FILLER_0_16_265
*592 FILLER_0_16_27
*593 FILLER_0_16_277
*594 FILLER_0_16_289
*595 FILLER_0_16_29
*596 FILLER_0_16_3
*597 FILLER_0_16_301
*598 FILLER_0_16_307
*599 FILLER_0_16_309
*600 FILLER_0_16_321
*601 FILLER_0_16_333
*602 FILLER_0_16_345
*603 FILLER_0_16_41
*604 FILLER_0_16_53
*605 FILLER_0_16_65
*606 FILLER_0_16_77
*607 FILLER_0_16_83
*608 FILLER_0_16_85
*609 FILLER_0_16_97
*610 FILLER_0_17_105
*611 FILLER_0_17_111
*612 FILLER_0_17_113
*613 FILLER_0_17_125
*614 FILLER_0_17_137
*615 FILLER_0_17_149
*616 FILLER_0_17_15
*617 FILLER_0_17_161
*618 FILLER_0_17_167
*619 FILLER_0_17_169
*620 FILLER_0_17_181
*621 FILLER_0_17_193
*622 FILLER_0_17_205
*623 FILLER_0_17_217
*624 FILLER_0_17_223
*625 FILLER_0_17_225
*626 FILLER_0_17_237
*627 FILLER_0_17_249
*628 FILLER_0_17_261
*629 FILLER_0_17_27
*630 FILLER_0_17_273
*631 FILLER_0_17_279
*632 FILLER_0_17_281
*633 FILLER_0_17_293
*634 FILLER_0_17_3
*635 FILLER_0_17_305
*636 FILLER_0_17_317
*637 FILLER_0_17_329
*638 FILLER_0_17_335
*639 FILLER_0_17_337
*640 FILLER_0_17_349
*641 FILLER_0_17_39
*642 FILLER_0_17_51
*643 FILLER_0_17_55
*644 FILLER_0_17_57
*645 FILLER_0_17_69
*646 FILLER_0_17_81
*647 FILLER_0_17_93
*648 FILLER_0_18_109
*649 FILLER_0_18_121
*650 FILLER_0_18_133
*651 FILLER_0_18_139
*652 FILLER_0_18_141
*653 FILLER_0_18_15
*654 FILLER_0_18_153
*655 FILLER_0_18_165
*656 FILLER_0_18_177
*657 FILLER_0_18_189
*658 FILLER_0_18_195
*659 FILLER_0_18_197
*660 FILLER_0_18_209
*661 FILLER_0_18_221
*662 FILLER_0_18_233
*663 FILLER_0_18_245
*664 FILLER_0_18_251
*665 FILLER_0_18_253
*666 FILLER_0_18_265
*667 FILLER_0_18_27
*668 FILLER_0_18_277
*669 FILLER_0_18_289
*670 FILLER_0_18_29
*671 FILLER_0_18_3
*672 FILLER_0_18_301
*673 FILLER_0_18_307
*674 FILLER_0_18_309
*675 FILLER_0_18_321
*676 FILLER_0_18_333
*677 FILLER_0_18_345
*678 FILLER_0_18_41
*679 FILLER_0_18_53
*680 FILLER_0_18_65
*681 FILLER_0_18_77
*682 FILLER_0_18_83
*683 FILLER_0_18_85
*684 FILLER_0_18_97
*685 FILLER_0_19_105
*686 FILLER_0_19_111
*687 FILLER_0_19_113
*688 FILLER_0_19_125
*689 FILLER_0_19_137
*690 FILLER_0_19_149
*691 FILLER_0_19_15
*692 FILLER_0_19_161
*693 FILLER_0_19_167
*694 FILLER_0_19_169
*695 FILLER_0_19_181
*696 FILLER_0_19_193
*697 FILLER_0_19_205
*698 FILLER_0_19_217
*699 FILLER_0_19_223
*700 FILLER_0_19_225
*701 FILLER_0_19_237
*702 FILLER_0_19_249
*703 FILLER_0_19_261
*704 FILLER_0_19_27
*705 FILLER_0_19_273
*706 FILLER_0_19_279
*707 FILLER_0_19_281
*708 FILLER_0_19_293
*709 FILLER_0_19_3
*710 FILLER_0_19_305
*711 FILLER_0_19_317
*712 FILLER_0_19_329
*713 FILLER_0_19_335
*714 FILLER_0_19_337
*715 FILLER_0_19_349
*716 FILLER_0_19_39
*717 FILLER_0_19_51
*718 FILLER_0_19_55
*719 FILLER_0_19_57
*720 FILLER_0_19_69
*721 FILLER_0_19_81
*722 FILLER_0_19_93
*723 FILLER_0_1_105
*724 FILLER_0_1_111
*725 FILLER_0_1_113
*726 FILLER_0_1_125
*727 FILLER_0_1_137
*728 FILLER_0_1_149
*729 FILLER_0_1_15
*730 FILLER_0_1_161
*731 FILLER_0_1_167
*732 FILLER_0_1_169
*733 FILLER_0_1_181
*734 FILLER_0_1_193
*735 FILLER_0_1_205
*736 FILLER_0_1_217
*737 FILLER_0_1_223
*738 FILLER_0_1_225
*739 FILLER_0_1_237
*740 FILLER_0_1_249
*741 FILLER_0_1_261
*742 FILLER_0_1_27
*743 FILLER_0_1_273
*744 FILLER_0_1_279
*745 FILLER_0_1_281
*746 FILLER_0_1_293
*747 FILLER_0_1_3
*748 FILLER_0_1_305
*749 FILLER_0_1_317
*750 FILLER_0_1_329
*751 FILLER_0_1_335
*752 FILLER_0_1_337
*753 FILLER_0_1_349
*754 FILLER_0_1_39
*755 FILLER_0_1_51
*756 FILLER_0_1_55
*757 FILLER_0_1_57
*758 FILLER_0_1_69
*759 FILLER_0_1_81
*760 FILLER_0_1_93
*761 FILLER_0_20_109
*762 FILLER_0_20_121
*763 FILLER_0_20_133
*764 FILLER_0_20_139
*765 FILLER_0_20_141
*766 FILLER_0_20_15
*767 FILLER_0_20_153
*768 FILLER_0_20_165
*769 FILLER_0_20_177
*770 FILLER_0_20_189
*771 FILLER_0_20_195
*772 FILLER_0_20_197
*773 FILLER_0_20_209
*774 FILLER_0_20_221
*775 FILLER_0_20_233
*776 FILLER_0_20_245
*777 FILLER_0_20_251
*778 FILLER_0_20_253
*779 FILLER_0_20_265
*780 FILLER_0_20_27
*781 FILLER_0_20_277
*782 FILLER_0_20_289
*783 FILLER_0_20_29
*784 FILLER_0_20_3
*785 FILLER_0_20_301
*786 FILLER_0_20_307
*787 FILLER_0_20_309
*788 FILLER_0_20_321
*789 FILLER_0_20_333
*790 FILLER_0_20_345
*791 FILLER_0_20_41
*792 FILLER_0_20_53
*793 FILLER_0_20_65
*794 FILLER_0_20_77
*795 FILLER_0_20_83
*796 FILLER_0_20_85
*797 FILLER_0_20_97
*798 FILLER_0_21_105
*799 FILLER_0_21_111
*800 FILLER_0_21_113
*801 FILLER_0_21_125
*802 FILLER_0_21_137
*803 FILLER_0_21_149
*804 FILLER_0_21_15
*805 FILLER_0_21_161
*806 FILLER_0_21_167
*807 FILLER_0_21_169
*808 FILLER_0_21_181
*809 FILLER_0_21_193
*810 FILLER_0_21_205
*811 FILLER_0_21_217
*812 FILLER_0_21_223
*813 FILLER_0_21_225
*814 FILLER_0_21_237
*815 FILLER_0_21_249
*816 FILLER_0_21_261
*817 FILLER_0_21_27
*818 FILLER_0_21_273
*819 FILLER_0_21_279
*820 FILLER_0_21_281
*821 FILLER_0_21_293
*822 FILLER_0_21_3
*823 FILLER_0_21_305
*824 FILLER_0_21_317
*825 FILLER_0_21_329
*826 FILLER_0_21_335
*827 FILLER_0_21_337
*828 FILLER_0_21_349
*829 FILLER_0_21_39
*830 FILLER_0_21_51
*831 FILLER_0_21_55
*832 FILLER_0_21_57
*833 FILLER_0_21_69
*834 FILLER_0_21_81
*835 FILLER_0_21_93
*836 FILLER_0_22_109
*837 FILLER_0_22_121
*838 FILLER_0_22_133
*839 FILLER_0_22_139
*840 FILLER_0_22_141
*841 FILLER_0_22_15
*842 FILLER_0_22_153
*843 FILLER_0_22_165
*844 FILLER_0_22_177
*845 FILLER_0_22_189
*846 FILLER_0_22_195
*847 FILLER_0_22_197
*848 FILLER_0_22_209
*849 FILLER_0_22_221
*850 FILLER_0_22_233
*851 FILLER_0_22_245
*852 FILLER_0_22_251
*853 FILLER_0_22_253
*854 FILLER_0_22_265
*855 FILLER_0_22_27
*856 FILLER_0_22_277
*857 FILLER_0_22_289
*858 FILLER_0_22_29
*859 FILLER_0_22_3
*860 FILLER_0_22_301
*861 FILLER_0_22_307
*862 FILLER_0_22_309
*863 FILLER_0_22_321
*864 FILLER_0_22_333
*865 FILLER_0_22_345
*866 FILLER_0_22_41
*867 FILLER_0_22_53
*868 FILLER_0_22_65
*869 FILLER_0_22_77
*870 FILLER_0_22_83
*871 FILLER_0_22_85
*872 FILLER_0_22_97
*873 FILLER_0_23_105
*874 FILLER_0_23_111
*875 FILLER_0_23_113
*876 FILLER_0_23_125
*877 FILLER_0_23_137
*878 FILLER_0_23_149
*879 FILLER_0_23_15
*880 FILLER_0_23_161
*881 FILLER_0_23_167
*882 FILLER_0_23_169
*883 FILLER_0_23_181
*884 FILLER_0_23_193
*885 FILLER_0_23_205
*886 FILLER_0_23_217
*887 FILLER_0_23_223
*888 FILLER_0_23_225
*889 FILLER_0_23_237
*890 FILLER_0_23_249
*891 FILLER_0_23_261
*892 FILLER_0_23_27
*893 FILLER_0_23_273
*894 FILLER_0_23_279
*895 FILLER_0_23_281
*896 FILLER_0_23_293
*897 FILLER_0_23_3
*898 FILLER_0_23_305
*899 FILLER_0_23_317
*900 FILLER_0_23_329
*901 FILLER_0_23_335
*902 FILLER_0_23_337
*903 FILLER_0_23_349
*904 FILLER_0_23_39
*905 FILLER_0_23_51
*906 FILLER_0_23_55
*907 FILLER_0_23_57
*908 FILLER_0_23_69
*909 FILLER_0_23_81
*910 FILLER_0_23_93
*911 FILLER_0_24_109
*912 FILLER_0_24_121
*913 FILLER_0_24_133
*914 FILLER_0_24_139
*915 FILLER_0_24_141
*916 FILLER_0_24_15
*917 FILLER_0_24_150
*918 FILLER_0_24_162
*919 FILLER_0_24_174
*920 FILLER_0_24_186
*921 FILLER_0_24_194
*922 FILLER_0_24_197
*923 FILLER_0_24_209
*924 FILLER_0_24_221
*925 FILLER_0_24_225
*926 FILLER_0_24_229
*927 FILLER_0_24_241
*928 FILLER_0_24_249
*929 FILLER_0_24_253
*930 FILLER_0_24_265
*931 FILLER_0_24_27
*932 FILLER_0_24_277
*933 FILLER_0_24_289
*934 FILLER_0_24_29
*935 FILLER_0_24_3
*936 FILLER_0_24_301
*937 FILLER_0_24_307
*938 FILLER_0_24_309
*939 FILLER_0_24_321
*940 FILLER_0_24_333
*941 FILLER_0_24_345
*942 FILLER_0_24_41
*943 FILLER_0_24_53
*944 FILLER_0_24_65
*945 FILLER_0_24_77
*946 FILLER_0_24_83
*947 FILLER_0_24_85
*948 FILLER_0_24_97
*949 FILLER_0_25_105
*950 FILLER_0_25_111
*951 FILLER_0_25_113
*952 FILLER_0_25_125
*953 FILLER_0_25_137
*954 FILLER_0_25_15
*955 FILLER_0_25_159
*956 FILLER_0_25_166
*957 FILLER_0_25_169
*958 FILLER_0_25_181
*959 FILLER_0_25_193
*960 FILLER_0_25_214
*961 FILLER_0_25_218
*962 FILLER_0_25_257
*963 FILLER_0_25_261
*964 FILLER_0_25_27
*965 FILLER_0_25_279
*966 FILLER_0_25_281
*967 FILLER_0_25_3
*968 FILLER_0_25_300
*969 FILLER_0_25_312
*970 FILLER_0_25_324
*971 FILLER_0_25_337
*972 FILLER_0_25_349
*973 FILLER_0_25_39
*974 FILLER_0_25_51
*975 FILLER_0_25_55
*976 FILLER_0_25_57
*977 FILLER_0_25_69
*978 FILLER_0_25_81
*979 FILLER_0_25_93
*980 FILLER_0_26_109
*981 FILLER_0_26_121
*982 FILLER_0_26_133
*983 FILLER_0_26_139
*984 FILLER_0_26_141
*985 FILLER_0_26_145
*986 FILLER_0_26_149
*987 FILLER_0_26_15
*988 FILLER_0_26_161
*989 FILLER_0_26_168
*990 FILLER_0_26_190
*991 FILLER_0_26_207
*992 FILLER_0_26_215
*993 FILLER_0_26_224
*994 FILLER_0_26_236
*995 FILLER_0_26_248
*996 FILLER_0_26_253
*997 FILLER_0_26_261
*998 FILLER_0_26_27
*999 FILLER_0_26_271
*1000 FILLER_0_26_279
*1001 FILLER_0_26_286
*1002 FILLER_0_26_29
*1003 FILLER_0_26_292
*1004 FILLER_0_26_296
*1005 FILLER_0_26_3
*1006 FILLER_0_26_301
*1007 FILLER_0_26_307
*1008 FILLER_0_26_309
*1009 FILLER_0_26_313
*1010 FILLER_0_26_324
*1011 FILLER_0_26_336
*1012 FILLER_0_26_348
*1013 FILLER_0_26_41
*1014 FILLER_0_26_53
*1015 FILLER_0_26_65
*1016 FILLER_0_26_77
*1017 FILLER_0_26_83
*1018 FILLER_0_26_85
*1019 FILLER_0_26_97
*1020 FILLER_0_27_105
*1021 FILLER_0_27_111
*1022 FILLER_0_27_113
*1023 FILLER_0_27_125
*1024 FILLER_0_27_137
*1025 FILLER_0_27_142
*1026 FILLER_0_27_15
*1027 FILLER_0_27_150
*1028 FILLER_0_27_158
*1029 FILLER_0_27_166
*1030 FILLER_0_27_169
*1031 FILLER_0_27_181
*1032 FILLER_0_27_187
*1033 FILLER_0_27_199
*1034 FILLER_0_27_207
*1035 FILLER_0_27_217
*1036 FILLER_0_27_223
*1037 FILLER_0_27_246
*1038 FILLER_0_27_254
*1039 FILLER_0_27_262
*1040 FILLER_0_27_27
*1041 FILLER_0_27_276
*1042 FILLER_0_27_286
*1043 FILLER_0_27_3
*1044 FILLER_0_27_308
*1045 FILLER_0_27_322
*1046 FILLER_0_27_334
*1047 FILLER_0_27_337
*1048 FILLER_0_27_349
*1049 FILLER_0_27_39
*1050 FILLER_0_27_51
*1051 FILLER_0_27_55
*1052 FILLER_0_27_57
*1053 FILLER_0_27_69
*1054 FILLER_0_27_81
*1055 FILLER_0_27_93
*1056 FILLER_0_28_109
*1057 FILLER_0_28_121
*1058 FILLER_0_28_133
*1059 FILLER_0_28_141
*1060 FILLER_0_28_15
*1061 FILLER_0_28_151
*1062 FILLER_0_28_171
*1063 FILLER_0_28_191
*1064 FILLER_0_28_195
*1065 FILLER_0_28_200
*1066 FILLER_0_28_206
*1067 FILLER_0_28_213
*1068 FILLER_0_28_222
*1069 FILLER_0_28_234
*1070 FILLER_0_28_250
*1071 FILLER_0_28_253
*1072 FILLER_0_28_265
*1073 FILLER_0_28_27
*1074 FILLER_0_28_271
*1075 FILLER_0_28_278
*1076 FILLER_0_28_284
*1077 FILLER_0_28_29
*1078 FILLER_0_28_299
*1079 FILLER_0_28_3
*1080 FILLER_0_28_307
*1081 FILLER_0_28_309
*1082 FILLER_0_28_318
*1083 FILLER_0_28_330
*1084 FILLER_0_28_342
*1085 FILLER_0_28_350
*1086 FILLER_0_28_41
*1087 FILLER_0_28_53
*1088 FILLER_0_28_65
*1089 FILLER_0_28_77
*1090 FILLER_0_28_83
*1091 FILLER_0_28_85
*1092 FILLER_0_28_97
*1093 FILLER_0_29_105
*1094 FILLER_0_29_111
*1095 FILLER_0_29_113
*1096 FILLER_0_29_125
*1097 FILLER_0_29_129
*1098 FILLER_0_29_138
*1099 FILLER_0_29_148
*1100 FILLER_0_29_15
*1101 FILLER_0_29_157
*1102 FILLER_0_29_165
*1103 FILLER_0_29_169
*1104 FILLER_0_29_181
*1105 FILLER_0_29_193
*1106 FILLER_0_29_208
*1107 FILLER_0_29_217
*1108 FILLER_0_29_223
*1109 FILLER_0_29_228
*1110 FILLER_0_29_240
*1111 FILLER_0_29_248
*1112 FILLER_0_29_258
*1113 FILLER_0_29_267
*1114 FILLER_0_29_27
*1115 FILLER_0_29_278
*1116 FILLER_0_29_281
*1117 FILLER_0_29_3
*1118 FILLER_0_29_302
*1119 FILLER_0_29_312
*1120 FILLER_0_29_325
*1121 FILLER_0_29_333
*1122 FILLER_0_29_337
*1123 FILLER_0_29_349
*1124 FILLER_0_29_39
*1125 FILLER_0_29_51
*1126 FILLER_0_29_55
*1127 FILLER_0_29_57
*1128 FILLER_0_29_69
*1129 FILLER_0_29_81
*1130 FILLER_0_29_93
*1131 FILLER_0_2_109
*1132 FILLER_0_2_121
*1133 FILLER_0_2_133
*1134 FILLER_0_2_139
*1135 FILLER_0_2_141
*1136 FILLER_0_2_15
*1137 FILLER_0_2_153
*1138 FILLER_0_2_165
*1139 FILLER_0_2_177
*1140 FILLER_0_2_189
*1141 FILLER_0_2_195
*1142 FILLER_0_2_197
*1143 FILLER_0_2_209
*1144 FILLER_0_2_221
*1145 FILLER_0_2_233
*1146 FILLER_0_2_245
*1147 FILLER_0_2_251
*1148 FILLER_0_2_253
*1149 FILLER_0_2_265
*1150 FILLER_0_2_27
*1151 FILLER_0_2_277
*1152 FILLER_0_2_289
*1153 FILLER_0_2_29
*1154 FILLER_0_2_3
*1155 FILLER_0_2_301
*1156 FILLER_0_2_307
*1157 FILLER_0_2_309
*1158 FILLER_0_2_321
*1159 FILLER_0_2_333
*1160 FILLER_0_2_345
*1161 FILLER_0_2_41
*1162 FILLER_0_2_53
*1163 FILLER_0_2_65
*1164 FILLER_0_2_77
*1165 FILLER_0_2_83
*1166 FILLER_0_2_85
*1167 FILLER_0_2_97
*1168 FILLER_0_30_109
*1169 FILLER_0_30_121
*1170 FILLER_0_30_129
*1171 FILLER_0_30_134
*1172 FILLER_0_30_141
*1173 FILLER_0_30_149
*1174 FILLER_0_30_15
*1175 FILLER_0_30_168
*1176 FILLER_0_30_187
*1177 FILLER_0_30_195
*1178 FILLER_0_30_205
*1179 FILLER_0_30_217
*1180 FILLER_0_30_237
*1181 FILLER_0_30_268
*1182 FILLER_0_30_27
*1183 FILLER_0_30_272
*1184 FILLER_0_30_287
*1185 FILLER_0_30_29
*1186 FILLER_0_30_294
*1187 FILLER_0_30_3
*1188 FILLER_0_30_306
*1189 FILLER_0_30_309
*1190 FILLER_0_30_318
*1191 FILLER_0_30_330
*1192 FILLER_0_30_342
*1193 FILLER_0_30_350
*1194 FILLER_0_30_41
*1195 FILLER_0_30_53
*1196 FILLER_0_30_65
*1197 FILLER_0_30_77
*1198 FILLER_0_30_83
*1199 FILLER_0_30_85
*1200 FILLER_0_30_97
*1201 FILLER_0_31_105
*1202 FILLER_0_31_111
*1203 FILLER_0_31_113
*1204 FILLER_0_31_125
*1205 FILLER_0_31_144
*1206 FILLER_0_31_15
*1207 FILLER_0_31_156
*1208 FILLER_0_31_177
*1209 FILLER_0_31_183
*1210 FILLER_0_31_192
*1211 FILLER_0_31_200
*1212 FILLER_0_31_223
*1213 FILLER_0_31_225
*1214 FILLER_0_31_244
*1215 FILLER_0_31_256
*1216 FILLER_0_31_268
*1217 FILLER_0_31_27
*1218 FILLER_0_31_278
*1219 FILLER_0_31_290
*1220 FILLER_0_31_3
*1221 FILLER_0_31_306
*1222 FILLER_0_31_314
*1223 FILLER_0_31_326
*1224 FILLER_0_31_334
*1225 FILLER_0_31_337
*1226 FILLER_0_31_349
*1227 FILLER_0_31_39
*1228 FILLER_0_31_51
*1229 FILLER_0_31_55
*1230 FILLER_0_31_57
*1231 FILLER_0_31_69
*1232 FILLER_0_31_81
*1233 FILLER_0_31_93
*1234 FILLER_0_32_109
*1235 FILLER_0_32_121
*1236 FILLER_0_32_133
*1237 FILLER_0_32_139
*1238 FILLER_0_32_141
*1239 FILLER_0_32_15
*1240 FILLER_0_32_152
*1241 FILLER_0_32_156
*1242 FILLER_0_32_171
*1243 FILLER_0_32_177
*1244 FILLER_0_32_183
*1245 FILLER_0_32_195
*1246 FILLER_0_32_197
*1247 FILLER_0_32_206
*1248 FILLER_0_32_218
*1249 FILLER_0_32_222
*1250 FILLER_0_32_227
*1251 FILLER_0_32_233
*1252 FILLER_0_32_243
*1253 FILLER_0_32_265
*1254 FILLER_0_32_27
*1255 FILLER_0_32_272
*1256 FILLER_0_32_280
*1257 FILLER_0_32_29
*1258 FILLER_0_32_292
*1259 FILLER_0_32_3
*1260 FILLER_0_32_303
*1261 FILLER_0_32_307
*1262 FILLER_0_32_325
*1263 FILLER_0_32_337
*1264 FILLER_0_32_349
*1265 FILLER_0_32_41
*1266 FILLER_0_32_53
*1267 FILLER_0_32_65
*1268 FILLER_0_32_77
*1269 FILLER_0_32_83
*1270 FILLER_0_32_85
*1271 FILLER_0_32_97
*1272 FILLER_0_33_105
*1273 FILLER_0_33_111
*1274 FILLER_0_33_113
*1275 FILLER_0_33_125
*1276 FILLER_0_33_140
*1277 FILLER_0_33_147
*1278 FILLER_0_33_15
*1279 FILLER_0_33_164
*1280 FILLER_0_33_169
*1281 FILLER_0_33_173
*1282 FILLER_0_33_190
*1283 FILLER_0_33_200
*1284 FILLER_0_33_207
*1285 FILLER_0_33_215
*1286 FILLER_0_33_222
*1287 FILLER_0_33_230
*1288 FILLER_0_33_239
*1289 FILLER_0_33_251
*1290 FILLER_0_33_255
*1291 FILLER_0_33_261
*1292 FILLER_0_33_268
*1293 FILLER_0_33_27
*1294 FILLER_0_33_279
*1295 FILLER_0_33_281
*1296 FILLER_0_33_3
*1297 FILLER_0_33_306
*1298 FILLER_0_33_310
*1299 FILLER_0_33_316
*1300 FILLER_0_33_320
*1301 FILLER_0_33_326
*1302 FILLER_0_33_334
*1303 FILLER_0_33_337
*1304 FILLER_0_33_349
*1305 FILLER_0_33_39
*1306 FILLER_0_33_51
*1307 FILLER_0_33_55
*1308 FILLER_0_33_57
*1309 FILLER_0_33_69
*1310 FILLER_0_33_81
*1311 FILLER_0_33_93
*1312 FILLER_0_34_109
*1313 FILLER_0_34_121
*1314 FILLER_0_34_129
*1315 FILLER_0_34_146
*1316 FILLER_0_34_15
*1317 FILLER_0_34_152
*1318 FILLER_0_34_157
*1319 FILLER_0_34_161
*1320 FILLER_0_34_167
*1321 FILLER_0_34_178
*1322 FILLER_0_34_183
*1323 FILLER_0_34_194
*1324 FILLER_0_34_197
*1325 FILLER_0_34_209
*1326 FILLER_0_34_224
*1327 FILLER_0_34_251
*1328 FILLER_0_34_253
*1329 FILLER_0_34_259
*1330 FILLER_0_34_27
*1331 FILLER_0_34_287
*1332 FILLER_0_34_29
*1333 FILLER_0_34_291
*1334 FILLER_0_34_299
*1335 FILLER_0_34_3
*1336 FILLER_0_34_307
*1337 FILLER_0_34_342
*1338 FILLER_0_34_350
*1339 FILLER_0_34_41
*1340 FILLER_0_34_53
*1341 FILLER_0_34_65
*1342 FILLER_0_34_77
*1343 FILLER_0_34_83
*1344 FILLER_0_34_85
*1345 FILLER_0_34_97
*1346 FILLER_0_35_105
*1347 FILLER_0_35_111
*1348 FILLER_0_35_113
*1349 FILLER_0_35_125
*1350 FILLER_0_35_131
*1351 FILLER_0_35_144
*1352 FILLER_0_35_15
*1353 FILLER_0_35_164
*1354 FILLER_0_35_169
*1355 FILLER_0_35_175
*1356 FILLER_0_35_190
*1357 FILLER_0_35_202
*1358 FILLER_0_35_216
*1359 FILLER_0_35_234
*1360 FILLER_0_35_245
*1361 FILLER_0_35_262
*1362 FILLER_0_35_27
*1363 FILLER_0_35_270
*1364 FILLER_0_35_281
*1365 FILLER_0_35_3
*1366 FILLER_0_35_320
*1367 FILLER_0_35_324
*1368 FILLER_0_35_328
*1369 FILLER_0_35_337
*1370 FILLER_0_35_349
*1371 FILLER_0_35_39
*1372 FILLER_0_35_51
*1373 FILLER_0_35_55
*1374 FILLER_0_35_57
*1375 FILLER_0_35_69
*1376 FILLER_0_35_81
*1377 FILLER_0_35_93
*1378 FILLER_0_36_109
*1379 FILLER_0_36_121
*1380 FILLER_0_36_133
*1381 FILLER_0_36_139
*1382 FILLER_0_36_141
*1383 FILLER_0_36_15
*1384 FILLER_0_36_154
*1385 FILLER_0_36_158
*1386 FILLER_0_36_175
*1387 FILLER_0_36_179
*1388 FILLER_0_36_187
*1389 FILLER_0_36_194
*1390 FILLER_0_36_197
*1391 FILLER_0_36_205
*1392 FILLER_0_36_220
*1393 FILLER_0_36_232
*1394 FILLER_0_36_244
*1395 FILLER_0_36_27
*1396 FILLER_0_36_283
*1397 FILLER_0_36_29
*1398 FILLER_0_36_295
*1399 FILLER_0_36_3
*1400 FILLER_0_36_307
*1401 FILLER_0_36_309
*1402 FILLER_0_36_328
*1403 FILLER_0_36_340
*1404 FILLER_0_36_348
*1405 FILLER_0_36_41
*1406 FILLER_0_36_53
*1407 FILLER_0_36_65
*1408 FILLER_0_36_77
*1409 FILLER_0_36_83
*1410 FILLER_0_36_85
*1411 FILLER_0_36_97
*1412 FILLER_0_37_105
*1413 FILLER_0_37_111
*1414 FILLER_0_37_113
*1415 FILLER_0_37_125
*1416 FILLER_0_37_137
*1417 FILLER_0_37_15
*1418 FILLER_0_37_152
*1419 FILLER_0_37_160
*1420 FILLER_0_37_167
*1421 FILLER_0_37_222
*1422 FILLER_0_37_243
*1423 FILLER_0_37_249
*1424 FILLER_0_37_263
*1425 FILLER_0_37_27
*1426 FILLER_0_37_278
*1427 FILLER_0_37_281
*1428 FILLER_0_37_290
*1429 FILLER_0_37_3
*1430 FILLER_0_37_302
*1431 FILLER_0_37_310
*1432 FILLER_0_37_324
*1433 FILLER_0_37_337
*1434 FILLER_0_37_349
*1435 FILLER_0_37_39
*1436 FILLER_0_37_51
*1437 FILLER_0_37_55
*1438 FILLER_0_37_57
*1439 FILLER_0_37_69
*1440 FILLER_0_37_81
*1441 FILLER_0_37_93
*1442 FILLER_0_38_104
*1443 FILLER_0_38_110
*1444 FILLER_0_38_116
*1445 FILLER_0_38_122
*1446 FILLER_0_38_128
*1447 FILLER_0_38_134
*1448 FILLER_0_38_141
*1449 FILLER_0_38_146
*1450 FILLER_0_38_15
*1451 FILLER_0_38_152
*1452 FILLER_0_38_158
*1453 FILLER_0_38_164
*1454 FILLER_0_38_169
*1455 FILLER_0_38_181
*1456 FILLER_0_38_193
*1457 FILLER_0_38_234
*1458 FILLER_0_38_257
*1459 FILLER_0_38_27
*1460 FILLER_0_38_278
*1461 FILLER_0_38_285
*1462 FILLER_0_38_289
*1463 FILLER_0_38_29
*1464 FILLER_0_38_3
*1465 FILLER_0_38_304
*1466 FILLER_0_38_326
*1467 FILLER_0_38_334
*1468 FILLER_0_38_337
*1469 FILLER_0_38_349
*1470 FILLER_0_38_41
*1471 FILLER_0_38_53
*1472 FILLER_0_38_57
*1473 FILLER_0_38_68
*1474 FILLER_0_38_74
*1475 FILLER_0_38_80
*1476 FILLER_0_38_88
*1477 FILLER_0_38_92
*1478 FILLER_0_38_98
*1479 FILLER_0_3_105
*1480 FILLER_0_3_111
*1481 FILLER_0_3_113
*1482 FILLER_0_3_125
*1483 FILLER_0_3_137
*1484 FILLER_0_3_149
*1485 FILLER_0_3_15
*1486 FILLER_0_3_161
*1487 FILLER_0_3_167
*1488 FILLER_0_3_169
*1489 FILLER_0_3_181
*1490 FILLER_0_3_193
*1491 FILLER_0_3_205
*1492 FILLER_0_3_217
*1493 FILLER_0_3_223
*1494 FILLER_0_3_225
*1495 FILLER_0_3_237
*1496 FILLER_0_3_249
*1497 FILLER_0_3_261
*1498 FILLER_0_3_27
*1499 FILLER_0_3_273
*1500 FILLER_0_3_279
*1501 FILLER_0_3_281
*1502 FILLER_0_3_293
*1503 FILLER_0_3_3
*1504 FILLER_0_3_305
*1505 FILLER_0_3_317
*1506 FILLER_0_3_329
*1507 FILLER_0_3_335
*1508 FILLER_0_3_337
*1509 FILLER_0_3_349
*1510 FILLER_0_3_39
*1511 FILLER_0_3_51
*1512 FILLER_0_3_55
*1513 FILLER_0_3_57
*1514 FILLER_0_3_69
*1515 FILLER_0_3_81
*1516 FILLER_0_3_93
*1517 FILLER_0_4_109
*1518 FILLER_0_4_121
*1519 FILLER_0_4_133
*1520 FILLER_0_4_139
*1521 FILLER_0_4_141
*1522 FILLER_0_4_15
*1523 FILLER_0_4_153
*1524 FILLER_0_4_165
*1525 FILLER_0_4_177
*1526 FILLER_0_4_189
*1527 FILLER_0_4_195
*1528 FILLER_0_4_197
*1529 FILLER_0_4_209
*1530 FILLER_0_4_221
*1531 FILLER_0_4_233
*1532 FILLER_0_4_245
*1533 FILLER_0_4_251
*1534 FILLER_0_4_253
*1535 FILLER_0_4_265
*1536 FILLER_0_4_27
*1537 FILLER_0_4_277
*1538 FILLER_0_4_289
*1539 FILLER_0_4_29
*1540 FILLER_0_4_3
*1541 FILLER_0_4_301
*1542 FILLER_0_4_307
*1543 FILLER_0_4_309
*1544 FILLER_0_4_321
*1545 FILLER_0_4_333
*1546 FILLER_0_4_345
*1547 FILLER_0_4_41
*1548 FILLER_0_4_53
*1549 FILLER_0_4_65
*1550 FILLER_0_4_77
*1551 FILLER_0_4_83
*1552 FILLER_0_4_85
*1553 FILLER_0_4_97
*1554 FILLER_0_5_105
*1555 FILLER_0_5_111
*1556 FILLER_0_5_113
*1557 FILLER_0_5_125
*1558 FILLER_0_5_137
*1559 FILLER_0_5_149
*1560 FILLER_0_5_15
*1561 FILLER_0_5_161
*1562 FILLER_0_5_167
*1563 FILLER_0_5_169
*1564 FILLER_0_5_181
*1565 FILLER_0_5_193