*SPEF "ieee 1481-1999"
*DESIGN "tt_um_cejmu"
*DATE "11:11:11 Fri 11 11, 1111"
*VENDOR "OpenRCX"
*PROGRAM "Parallel Extraction"
*VERSION "1.0"
*DESIGN_FLOW "NAME_SCOPE LOCAL" "PIN_CAP NONE"
*DIVIDER /
*DELIMITER :
*BUS_DELIMITER []
*T_UNIT 1 NS
*C_UNIT 1 PF
*R_UNIT 1 OHM
*L_UNIT 1 HENRY

*NAME_MAP
*3 clk
*4 ena
*5 rst_n
*6 ui_in[0]
*7 ui_in[1]
*8 ui_in[2]
*9 ui_in[3]
*10 ui_in[4]
*11 ui_in[5]
*12 ui_in[6]
*13 ui_in[7]
*14 uio_in[0]
*15 uio_in[1]
*16 uio_in[2]
*17 uio_in[3]
*18 uio_in[4]
*19 uio_in[5]
*20 uio_in[6]
*21 uio_in[7]
*22 net12
*23 net13
*24 net14
*25 net15
*26 net16
*27 net17
*28 net18
*29 net19
*30 net20
*31 net21
*32 net22
*33 net23
*34 net24
*35 net25
*36 net26
*37 net27
*38 uo_out[0]
*39 uo_out[1]
*40 uo_out[2]
*41 uo_out[3]
*42 uo_out[4]
*43 uo_out[5]
*44 uo_out[6]
*45 uo_out[7]
*46 _000_
*47 _001_
*48 _002_
*49 _003_
*50 _004_
*51 _005_
*52 _006_
*53 _007_
*54 _008_
*55 _009_
*56 _010_
*57 _011_
*58 _012_
*59 _013_
*60 _014_
*61 _015_
*62 _016_
*63 _017_
*64 _018_
*65 _019_
*66 _020_
*67 _021_
*68 _022_
*69 _023_
*70 _024_
*71 _025_
*72 _026_
*73 _027_
*74 _028_
*75 _029_
*76 _030_
*77 _031_
*78 _032_
*79 _033_
*80 _034_
*81 _035_
*82 _036_
*83 _037_
*84 _038_
*85 _039_
*86 _040_
*87 _041_
*88 _042_
*89 _043_
*90 _044_
*91 _045_
*92 _046_
*93 _047_
*94 _048_
*95 _049_
*96 _050_
*97 _051_
*98 _052_
*99 _053_
*100 _054_
*101 _055_
*102 _056_
*103 _057_
*104 _058_
*105 _059_
*106 _060_
*107 _061_
*108 _062_
*109 _063_
*110 _064_
*111 _065_
*112 _066_
*113 _067_
*114 _068_
*115 _069_
*116 _070_
*117 _071_
*118 _072_
*119 _073_
*120 _074_
*121 _075_
*122 _076_
*123 _077_
*124 _078_
*125 _079_
*126 _080_
*127 _081_
*128 _082_
*129 _083_
*130 _084_
*131 _085_
*132 _086_
*133 _087_
*134 _088_
*135 _089_
*136 _090_
*137 _091_
*138 _092_
*139 _093_
*140 _094_
*141 _095_
*142 _096_
*143 _097_
*144 _098_
*145 _099_
*146 _100_
*147 _101_
*148 _102_
*149 _103_
*150 _104_
*151 _105_
*152 _106_
*153 _107_
*154 _108_
*155 _109_
*156 _110_
*157 _111_
*158 _112_
*159 _113_
*160 _114_
*161 _115_
*162 _116_
*163 _117_
*164 _118_
*165 _119_
*166 _120_
*167 _121_
*168 net1
*169 net10
*170 net11
*171 net2
*172 net3
*173 net4
*174 net5
*175 net6
*176 net7
*177 net8
*178 net9
*179 FILLER_0_0_109
*180 FILLER_0_0_113
*181 FILLER_0_0_125
*182 FILLER_0_0_137
*183 FILLER_0_0_141
*184 FILLER_0_0_15
*185 FILLER_0_0_153
*186 FILLER_0_0_165
*187 FILLER_0_0_169
*188 FILLER_0_0_181
*189 FILLER_0_0_193
*190 FILLER_0_0_197
*191 FILLER_0_0_209
*192 FILLER_0_0_221
*193 FILLER_0_0_225
*194 FILLER_0_0_237
*195 FILLER_0_0_249
*196 FILLER_0_0_253
*197 FILLER_0_0_265
*198 FILLER_0_0_27
*199 FILLER_0_0_277
*200 FILLER_0_0_281
*201 FILLER_0_0_29
*202 FILLER_0_0_293
*203 FILLER_0_0_3
*204 FILLER_0_0_305
*205 FILLER_0_0_309
*206 FILLER_0_0_321
*207 FILLER_0_0_333
*208 FILLER_0_0_337
*209 FILLER_0_0_349
*210 FILLER_0_0_41
*211 FILLER_0_0_53
*212 FILLER_0_0_57
*213 FILLER_0_0_69
*214 FILLER_0_0_81
*215 FILLER_0_0_85
*216 FILLER_0_0_97
*217 FILLER_0_10_109
*218 FILLER_0_10_121
*219 FILLER_0_10_133
*220 FILLER_0_10_139
*221 FILLER_0_10_141
*222 FILLER_0_10_15
*223 FILLER_0_10_153
*224 FILLER_0_10_165
*225 FILLER_0_10_177
*226 FILLER_0_10_189
*227 FILLER_0_10_195
*228 FILLER_0_10_197
*229 FILLER_0_10_209
*230 FILLER_0_10_221
*231 FILLER_0_10_233
*232 FILLER_0_10_245
*233 FILLER_0_10_251
*234 FILLER_0_10_253
*235 FILLER_0_10_265
*236 FILLER_0_10_27
*237 FILLER_0_10_277
*238 FILLER_0_10_289
*239 FILLER_0_10_29
*240 FILLER_0_10_3
*241 FILLER_0_10_301
*242 FILLER_0_10_307
*243 FILLER_0_10_309
*244 FILLER_0_10_321
*245 FILLER_0_10_333
*246 FILLER_0_10_345
*247 FILLER_0_10_41
*248 FILLER_0_10_53
*249 FILLER_0_10_65
*250 FILLER_0_10_77
*251 FILLER_0_10_83
*252 FILLER_0_10_85
*253 FILLER_0_10_97
*254 FILLER_0_11_105
*255 FILLER_0_11_111
*256 FILLER_0_11_113
*257 FILLER_0_11_125
*258 FILLER_0_11_137
*259 FILLER_0_11_149
*260 FILLER_0_11_15
*261 FILLER_0_11_161
*262 FILLER_0_11_167
*263 FILLER_0_11_169
*264 FILLER_0_11_181
*265 FILLER_0_11_193
*266 FILLER_0_11_205
*267 FILLER_0_11_217
*268 FILLER_0_11_223
*269 FILLER_0_11_225
*270 FILLER_0_11_237
*271 FILLER_0_11_249
*272 FILLER_0_11_261
*273 FILLER_0_11_27
*274 FILLER_0_11_273
*275 FILLER_0_11_279
*276 FILLER_0_11_281
*277 FILLER_0_11_293
*278 FILLER_0_11_3
*279 FILLER_0_11_305
*280 FILLER_0_11_317
*281 FILLER_0_11_329
*282 FILLER_0_11_335
*283 FILLER_0_11_337
*284 FILLER_0_11_349
*285 FILLER_0_11_39
*286 FILLER_0_11_51
*287 FILLER_0_11_55
*288 FILLER_0_11_57
*289 FILLER_0_11_69
*290 FILLER_0_11_81
*291 FILLER_0_11_93
*292 FILLER_0_12_109
*293 FILLER_0_12_121
*294 FILLER_0_12_133
*295 FILLER_0_12_139
*296 FILLER_0_12_141
*297 FILLER_0_12_15
*298 FILLER_0_12_153
*299 FILLER_0_12_165
*300 FILLER_0_12_177
*301 FILLER_0_12_189
*302 FILLER_0_12_195
*303 FILLER_0_12_197
*304 FILLER_0_12_209
*305 FILLER_0_12_221
*306 FILLER_0_12_233
*307 FILLER_0_12_245
*308 FILLER_0_12_251
*309 FILLER_0_12_253
*310 FILLER_0_12_265
*311 FILLER_0_12_27
*312 FILLER_0_12_277
*313 FILLER_0_12_289
*314 FILLER_0_12_29
*315 FILLER_0_12_3
*316 FILLER_0_12_301
*317 FILLER_0_12_307
*318 FILLER_0_12_309
*319 FILLER_0_12_321
*320 FILLER_0_12_333
*321 FILLER_0_12_345
*322 FILLER_0_12_41
*323 FILLER_0_12_53
*324 FILLER_0_12_65
*325 FILLER_0_12_77
*326 FILLER_0_12_83
*327 FILLER_0_12_85
*328 FILLER_0_12_97
*329 FILLER_0_13_105
*330 FILLER_0_13_111
*331 FILLER_0_13_113
*332 FILLER_0_13_125
*333 FILLER_0_13_137
*334 FILLER_0_13_149
*335 FILLER_0_13_15
*336 FILLER_0_13_161
*337 FILLER_0_13_167
*338 FILLER_0_13_169
*339 FILLER_0_13_181
*340 FILLER_0_13_193
*341 FILLER_0_13_205
*342 FILLER_0_13_217
*343 FILLER_0_13_223
*344 FILLER_0_13_225
*345 FILLER_0_13_237
*346 FILLER_0_13_249
*347 FILLER_0_13_261
*348 FILLER_0_13_27
*349 FILLER_0_13_273
*350 FILLER_0_13_279
*351 FILLER_0_13_281
*352 FILLER_0_13_293
*353 FILLER_0_13_3
*354 FILLER_0_13_305
*355 FILLER_0_13_317
*356 FILLER_0_13_329
*357 FILLER_0_13_335
*358 FILLER_0_13_337
*359 FILLER_0_13_349
*360 FILLER_0_13_39
*361 FILLER_0_13_51
*362 FILLER_0_13_55
*363 FILLER_0_13_57
*364 FILLER_0_13_69
*365 FILLER_0_13_81
*366 FILLER_0_13_93
*367 FILLER_0_14_109
*368 FILLER_0_14_121
*369 FILLER_0_14_133
*370 FILLER_0_14_139
*371 FILLER_0_14_141
*372 FILLER_0_14_15
*373 FILLER_0_14_153
*374 FILLER_0_14_165
*375 FILLER_0_14_177
*376 FILLER_0_14_189
*377 FILLER_0_14_195
*378 FILLER_0_14_197
*379 FILLER_0_14_209
*380 FILLER_0_14_221
*381 FILLER_0_14_233
*382 FILLER_0_14_245
*383 FILLER_0_14_251
*384 FILLER_0_14_253
*385 FILLER_0_14_265
*386 FILLER_0_14_27
*387 FILLER_0_14_277
*388 FILLER_0_14_289
*389 FILLER_0_14_29
*390 FILLER_0_14_3
*391 FILLER_0_14_301
*392 FILLER_0_14_307
*393 FILLER_0_14_309
*394 FILLER_0_14_321
*395 FILLER_0_14_333
*396 FILLER_0_14_345
*397 FILLER_0_14_41
*398 FILLER_0_14_53
*399 FILLER_0_14_65
*400 FILLER_0_14_77
*401 FILLER_0_14_83
*402 FILLER_0_14_85
*403 FILLER_0_14_97
*404 FILLER_0_15_105
*405 FILLER_0_15_111
*406 FILLER_0_15_113
*407 FILLER_0_15_125
*408 FILLER_0_15_137
*409 FILLER_0_15_149
*410 FILLER_0_15_15
*411 FILLER_0_15_161
*412 FILLER_0_15_167
*413 FILLER_0_15_169
*414 FILLER_0_15_181
*415 FILLER_0_15_193
*416 FILLER_0_15_205
*417 FILLER_0_15_217
*418 FILLER_0_15_223
*419 FILLER_0_15_225
*420 FILLER_0_15_237
*421 FILLER_0_15_249
*422 FILLER_0_15_261
*423 FILLER_0_15_27
*424 FILLER_0_15_273
*425 FILLER_0_15_279
*426 FILLER_0_15_281
*427 FILLER_0_15_293
*428 FILLER_0_15_3
*429 FILLER_0_15_305
*430 FILLER_0_15_317
*431 FILLER_0_15_329
*432 FILLER_0_15_335
*433 FILLER_0_15_337
*434 FILLER_0_15_349
*435 FILLER_0_15_39
*436 FILLER_0_15_51
*437 FILLER_0_15_55
*438 FILLER_0_15_57
*439 FILLER_0_15_69
*440 FILLER_0_15_81
*441 FILLER_0_15_93
*442 FILLER_0_16_109
*443 FILLER_0_16_121
*444 FILLER_0_16_133
*445 FILLER_0_16_139
*446 FILLER_0_16_141
*447 FILLER_0_16_15
*448 FILLER_0_16_153
*449 FILLER_0_16_165
*450 FILLER_0_16_177
*451 FILLER_0_16_189
*452 FILLER_0_16_195
*453 FILLER_0_16_197
*454 FILLER_0_16_209
*455 FILLER_0_16_221
*456 FILLER_0_16_233
*457 FILLER_0_16_245
*458 FILLER_0_16_251
*459 FILLER_0_16_253
*460 FILLER_0_16_265
*461 FILLER_0_16_27
*462 FILLER_0_16_277
*463 FILLER_0_16_289
*464 FILLER_0_16_29
*465 FILLER_0_16_3
*466 FILLER_0_16_301
*467 FILLER_0_16_307
*468 FILLER_0_16_309
*469 FILLER_0_16_321
*470 FILLER_0_16_333
*471 FILLER_0_16_345
*472 FILLER_0_16_41
*473 FILLER_0_16_53
*474 FILLER_0_16_65
*475 FILLER_0_16_77
*476 FILLER_0_16_83
*477 FILLER_0_16_85
*478 FILLER_0_16_97
*479 FILLER_0_17_105
*480 FILLER_0_17_111
*481 FILLER_0_17_113
*482 FILLER_0_17_125
*483 FILLER_0_17_137
*484 FILLER_0_17_149
*485 FILLER_0_17_15
*486 FILLER_0_17_161
*487 FILLER_0_17_167
*488 FILLER_0_17_169
*489 FILLER_0_17_181
*490 FILLER_0_17_193
*491 FILLER_0_17_205
*492 FILLER_0_17_217
*493 FILLER_0_17_223
*494 FILLER_0_17_225
*495 FILLER_0_17_237
*496 FILLER_0_17_249
*497 FILLER_0_17_261
*498 FILLER_0_17_27
*499 FILLER_0_17_273
*500 FILLER_0_17_279
*501 FILLER_0_17_281
*502 FILLER_0_17_293
*503 FILLER_0_17_3
*504 FILLER_0_17_305
*505 FILLER_0_17_317
*506 FILLER_0_17_329
*507 FILLER_0_17_335
*508 FILLER_0_17_337
*509 FILLER_0_17_349
*510 FILLER_0_17_39
*511 FILLER_0_17_51
*512 FILLER_0_17_55
*513 FILLER_0_17_57
*514 FILLER_0_17_69
*515 FILLER_0_17_81
*516 FILLER_0_17_93
*517 FILLER_0_18_109
*518 FILLER_0_18_121
*519 FILLER_0_18_133
*520 FILLER_0_18_139
*521 FILLER_0_18_141
*522 FILLER_0_18_15
*523 FILLER_0_18_153
*524 FILLER_0_18_165
*525 FILLER_0_18_177
*526 FILLER_0_18_189
*527 FILLER_0_18_195
*528 FILLER_0_18_197
*529 FILLER_0_18_209
*530 FILLER_0_18_221
*531 FILLER_0_18_233
*532 FILLER_0_18_245
*533 FILLER_0_18_251
*534 FILLER_0_18_253
*535 FILLER_0_18_265
*536 FILLER_0_18_27
*537 FILLER_0_18_277
*538 FILLER_0_18_289
*539 FILLER_0_18_29
*540 FILLER_0_18_3
*541 FILLER_0_18_301
*542 FILLER_0_18_307
*543 FILLER_0_18_309
*544 FILLER_0_18_321
*545 FILLER_0_18_333
*546 FILLER_0_18_345
*547 FILLER_0_18_41
*548 FILLER_0_18_53
*549 FILLER_0_18_65
*550 FILLER_0_18_77
*551 FILLER_0_18_83
*552 FILLER_0_18_85
*553 FILLER_0_18_97
*554 FILLER_0_19_105
*555 FILLER_0_19_111
*556 FILLER_0_19_113
*557 FILLER_0_19_125
*558 FILLER_0_19_137
*559 FILLER_0_19_149
*560 FILLER_0_19_15
*561 FILLER_0_19_161
*562 FILLER_0_19_167
*563 FILLER_0_19_169
*564 FILLER_0_19_181
*565 FILLER_0_19_193
*566 FILLER_0_19_205
*567 FILLER_0_19_217
*568 FILLER_0_19_223
*569 FILLER_0_19_225
*570 FILLER_0_19_237
*571 FILLER_0_19_249
*572 FILLER_0_19_261
*573 FILLER_0_19_27
*574 FILLER_0_19_273
*575 FILLER_0_19_279
*576 FILLER_0_19_281
*577 FILLER_0_19_293
*578 FILLER_0_19_3
*579 FILLER_0_19_305
*580 FILLER_0_19_317
*581 FILLER_0_19_329
*582 FILLER_0_19_335
*583 FILLER_0_19_337
*584 FILLER_0_19_349
*585 FILLER_0_19_39
*586 FILLER_0_19_51
*587 FILLER_0_19_55
*588 FILLER_0_19_57
*589 FILLER_0_19_69
*590 FILLER_0_19_81
*591 FILLER_0_19_93
*592 FILLER_0_1_105
*593 FILLER_0_1_111
*594 FILLER_0_1_113
*595 FILLER_0_1_125
*596 FILLER_0_1_137
*597 FILLER_0_1_149
*598 FILLER_0_1_15
*599 FILLER_0_1_161
*600 FILLER_0_1_167
*601 FILLER_0_1_169
*602 FILLER_0_1_181
*603 FILLER_0_1_193
*604 FILLER_0_1_205
*605 FILLER_0_1_217
*606 FILLER_0_1_223
*607 FILLER_0_1_225
*608 FILLER_0_1_237
*609 FILLER_0_1_249
*610 FILLER_0_1_261
*611 FILLER_0_1_27
*612 FILLER_0_1_273
*613 FILLER_0_1_279
*614 FILLER_0_1_281
*615 FILLER_0_1_293
*616 FILLER_0_1_3
*617 FILLER_0_1_305
*618 FILLER_0_1_317
*619 FILLER_0_1_329
*620 FILLER_0_1_335
*621 FILLER_0_1_337
*622 FILLER_0_1_349
*623 FILLER_0_1_39
*624 FILLER_0_1_51
*625 FILLER_0_1_55
*626 FILLER_0_1_57
*627 FILLER_0_1_69
*628 FILLER_0_1_81
*629 FILLER_0_1_93
*630 FILLER_0_20_109
*631 FILLER_0_20_121
*632 FILLER_0_20_133
*633 FILLER_0_20_139
*634 FILLER_0_20_141
*635 FILLER_0_20_15
*636 FILLER_0_20_153
*637 FILLER_0_20_165
*638 FILLER_0_20_177
*639 FILLER_0_20_189
*640 FILLER_0_20_195
*641 FILLER_0_20_197
*642 FILLER_0_20_209
*643 FILLER_0_20_221
*644 FILLER_0_20_233
*645 FILLER_0_20_245
*646 FILLER_0_20_251
*647 FILLER_0_20_253
*648 FILLER_0_20_265
*649 FILLER_0_20_27
*650 FILLER_0_20_277
*651 FILLER_0_20_289
*652 FILLER_0_20_29
*653 FILLER_0_20_3
*654 FILLER_0_20_301
*655 FILLER_0_20_307
*656 FILLER_0_20_309
*657 FILLER_0_20_321
*658 FILLER_0_20_333
*659 FILLER_0_20_345
*660 FILLER_0_20_41
*661 FILLER_0_20_53
*662 FILLER_0_20_65
*663 FILLER_0_20_77
*664 FILLER_0_20_83
*665 FILLER_0_20_85
*666 FILLER_0_20_97
*667 FILLER_0_21_105
*668 FILLER_0_21_111
*669 FILLER_0_21_113
*670 FILLER_0_21_125
*671 FILLER_0_21_137
*672 FILLER_0_21_149
*673 FILLER_0_21_15
*674 FILLER_0_21_161
*675 FILLER_0_21_167
*676 FILLER_0_21_169
*677 FILLER_0_21_181
*678 FILLER_0_21_193
*679 FILLER_0_21_205
*680 FILLER_0_21_217
*681 FILLER_0_21_223
*682 FILLER_0_21_225
*683 FILLER_0_21_237
*684 FILLER_0_21_249
*685 FILLER_0_21_261
*686 FILLER_0_21_27
*687 FILLER_0_21_273
*688 FILLER_0_21_279
*689 FILLER_0_21_281
*690 FILLER_0_21_293
*691 FILLER_0_21_3
*692 FILLER_0_21_305
*693 FILLER_0_21_317
*694 FILLER_0_21_329
*695 FILLER_0_21_335
*696 FILLER_0_21_337
*697 FILLER_0_21_349
*698 FILLER_0_21_39
*699 FILLER_0_21_51
*700 FILLER_0_21_55
*701 FILLER_0_21_57
*702 FILLER_0_21_69
*703 FILLER_0_21_81
*704 FILLER_0_21_93
*705 FILLER_0_22_109
*706 FILLER_0_22_121
*707 FILLER_0_22_133
*708 FILLER_0_22_139
*709 FILLER_0_22_141
*710 FILLER_0_22_15
*711 FILLER_0_22_153
*712 FILLER_0_22_165
*713 FILLER_0_22_177
*714 FILLER_0_22_189
*715 FILLER_0_22_195
*716 FILLER_0_22_197
*717 FILLER_0_22_209
*718 FILLER_0_22_221
*719 FILLER_0_22_233
*720 FILLER_0_22_245
*721 FILLER_0_22_251
*722 FILLER_0_22_253
*723 FILLER_0_22_265
*724 FILLER_0_22_27
*725 FILLER_0_22_277
*726 FILLER_0_22_289
*727 FILLER_0_22_29
*728 FILLER_0_22_3
*729 FILLER_0_22_301
*730 FILLER_0_22_307
*731 FILLER_0_22_309
*732 FILLER_0_22_321
*733 FILLER_0_22_333
*734 FILLER_0_22_345
*735 FILLER_0_22_41
*736 FILLER_0_22_53
*737 FILLER_0_22_65
*738 FILLER_0_22_77
*739 FILLER_0_22_83
*740 FILLER_0_22_85
*741 FILLER_0_22_97
*742 FILLER_0_23_105
*743 FILLER_0_23_111
*744 FILLER_0_23_113
*745 FILLER_0_23_125
*746 FILLER_0_23_137
*747 FILLER_0_23_149
*748 FILLER_0_23_15
*749 FILLER_0_23_161
*750 FILLER_0_23_167
*751 FILLER_0_23_169
*752 FILLER_0_23_181
*753 FILLER_0_23_193
*754 FILLER_0_23_205
*755 FILLER_0_23_217
*756 FILLER_0_23_223
*757 FILLER_0_23_225
*758 FILLER_0_23_237
*759 FILLER_0_23_249
*760 FILLER_0_23_261
*761 FILLER_0_23_27
*762 FILLER_0_23_273
*763 FILLER_0_23_279
*764 FILLER_0_23_281
*765 FILLER_0_23_293
*766 FILLER_0_23_3
*767 FILLER_0_23_305
*768 FILLER_0_23_317
*769 FILLER_0_23_329
*770 FILLER_0_23_335
*771 FILLER_0_23_337
*772 FILLER_0_23_349
*773 FILLER_0_23_39
*774 FILLER_0_23_51
*775 FILLER_0_23_55
*776 FILLER_0_23_57
*777 FILLER_0_23_69
*778 FILLER_0_23_81
*779 FILLER_0_23_93
*780 FILLER_0_24_109
*781 FILLER_0_24_121
*782 FILLER_0_24_133
*783 FILLER_0_24_139
*784 FILLER_0_24_141
*785 FILLER_0_24_15
*786 FILLER_0_24_153
*787 FILLER_0_24_165
*788 FILLER_0_24_177
*789 FILLER_0_24_189
*790 FILLER_0_24_195
*791 FILLER_0_24_197
*792 FILLER_0_24_209
*793 FILLER_0_24_221
*794 FILLER_0_24_233
*795 FILLER_0_24_245
*796 FILLER_0_24_251
*797 FILLER_0_24_253
*798 FILLER_0_24_265
*799 FILLER_0_24_27
*800 FILLER_0_24_277
*801 FILLER_0_24_289
*802 FILLER_0_24_29
*803 FILLER_0_24_3
*804 FILLER_0_24_301
*805 FILLER_0_24_307
*806 FILLER_0_24_309
*807 FILLER_0_24_321
*808 FILLER_0_24_333
*809 FILLER_0_24_345
*810 FILLER_0_24_41
*811 FILLER_0_24_53
*812 FILLER_0_24_65
*813 FILLER_0_24_77
*814 FILLER_0_24_83
*815 FILLER_0_24_85
*816 FILLER_0_24_97
*817 FILLER_0_25_105
*818 FILLER_0_25_111
*819 FILLER_0_25_113
*820 FILLER_0_25_125
*821 FILLER_0_25_137
*822 FILLER_0_25_149
*823 FILLER_0_25_15
*824 FILLER_0_25_161
*825 FILLER_0_25_167
*826 FILLER_0_25_169
*827 FILLER_0_25_181
*828 FILLER_0_25_193
*829 FILLER_0_25_205
*830 FILLER_0_25_217
*831 FILLER_0_25_223
*832 FILLER_0_25_225
*833 FILLER_0_25_237
*834 FILLER_0_25_249
*835 FILLER_0_25_261
*836 FILLER_0_25_27
*837 FILLER_0_25_273
*838 FILLER_0_25_279
*839 FILLER_0_25_281
*840 FILLER_0_25_293
*841 FILLER_0_25_3
*842 FILLER_0_25_305
*843 FILLER_0_25_317
*844 FILLER_0_25_329
*845 FILLER_0_25_335
*846 FILLER_0_25_337
*847 FILLER_0_25_349
*848 FILLER_0_25_39
*849 FILLER_0_25_51
*850 FILLER_0_25_55
*851 FILLER_0_25_57
*852 FILLER_0_25_69
*853 FILLER_0_25_81
*854 FILLER_0_25_93
*855 FILLER_0_26_109
*856 FILLER_0_26_121
*857 FILLER_0_26_133
*858 FILLER_0_26_139
*859 FILLER_0_26_141
*860 FILLER_0_26_15
*861 FILLER_0_26_153
*862 FILLER_0_26_165
*863 FILLER_0_26_177
*864 FILLER_0_26_189
*865 FILLER_0_26_195
*866 FILLER_0_26_197
*867 FILLER_0_26_209
*868 FILLER_0_26_221
*869 FILLER_0_26_233
*870 FILLER_0_26_245
*871 FILLER_0_26_251
*872 FILLER_0_26_253
*873 FILLER_0_26_265
*874 FILLER_0_26_27
*875 FILLER_0_26_277
*876 FILLER_0_26_289
*877 FILLER_0_26_29
*878 FILLER_0_26_3
*879 FILLER_0_26_301
*880 FILLER_0_26_307
*881 FILLER_0_26_309
*882 FILLER_0_26_321
*883 FILLER_0_26_333
*884 FILLER_0_26_345
*885 FILLER_0_26_41
*886 FILLER_0_26_53
*887 FILLER_0_26_65
*888 FILLER_0_26_77
*889 FILLER_0_26_83
*890 FILLER_0_26_85
*891 FILLER_0_26_97
*892 FILLER_0_27_105
*893 FILLER_0_27_111
*894 FILLER_0_27_113
*895 FILLER_0_27_125
*896 FILLER_0_27_137
*897 FILLER_0_27_149
*898 FILLER_0_27_15
*899 FILLER_0_27_161
*900 FILLER_0_27_167
*901 FILLER_0_27_169
*902 FILLER_0_27_181
*903 FILLER_0_27_193
*904 FILLER_0_27_205
*905 FILLER_0_27_217
*906 FILLER_0_27_223
*907 FILLER_0_27_225
*908 FILLER_0_27_237
*909 FILLER_0_27_249
*910 FILLER_0_27_261
*911 FILLER_0_27_27
*912 FILLER_0_27_273
*913 FILLER_0_27_279
*914 FILLER_0_27_281
*915 FILLER_0_27_293
*916 FILLER_0_27_3
*917 FILLER_0_27_305
*918 FILLER_0_27_317
*919 FILLER_0_27_329
*920 FILLER_0_27_335
*921 FILLER_0_27_337
*922 FILLER_0_27_349
*923 FILLER_0_27_39
*924 FILLER_0_27_51
*925 FILLER_0_27_55
*926 FILLER_0_27_57
*927 FILLER_0_27_69
*928 FILLER_0_27_81
*929 FILLER_0_27_93
*930 FILLER_0_28_109
*931 FILLER_0_28_121
*932 FILLER_0_28_133
*933 FILLER_0_28_139
*934 FILLER_0_28_141
*935 FILLER_0_28_15
*936 FILLER_0_28_153
*937 FILLER_0_28_165
*938 FILLER_0_28_177
*939 FILLER_0_28_189
*940 FILLER_0_28_195
*941 FILLER_0_28_197
*942 FILLER_0_28_209
*943 FILLER_0_28_221
*944 FILLER_0_28_228
*945 FILLER_0_28_240
*946 FILLER_0_28_253
*947 FILLER_0_28_265
*948 FILLER_0_28_27
*949 FILLER_0_28_277
*950 FILLER_0_28_289
*951 FILLER_0_28_29
*952 FILLER_0_28_3
*953 FILLER_0_28_301
*954 FILLER_0_28_307
*955 FILLER_0_28_309
*956 FILLER_0_28_321
*957 FILLER_0_28_333
*958 FILLER_0_28_345
*959 FILLER_0_28_41
*960 FILLER_0_28_53
*961 FILLER_0_28_65
*962 FILLER_0_28_77
*963 FILLER_0_28_83
*964 FILLER_0_28_85
*965 FILLER_0_28_97
*966 FILLER_0_29_105
*967 FILLER_0_29_111
*968 FILLER_0_29_113
*969 FILLER_0_29_125
*970 FILLER_0_29_137
*971 FILLER_0_29_149
*972 FILLER_0_29_15
*973 FILLER_0_29_161
*974 FILLER_0_29_167
*975 FILLER_0_29_169
*976 FILLER_0_29_181
*977 FILLER_0_29_185
*978 FILLER_0_29_192
*979 FILLER_0_29_214
*980 FILLER_0_29_223
*981 FILLER_0_29_225
*982 FILLER_0_29_234
*983 FILLER_0_29_246
*984 FILLER_0_29_250
*985 FILLER_0_29_258
*986 FILLER_0_29_266
*987 FILLER_0_29_27
*988 FILLER_0_29_278
*989 FILLER_0_29_281
*990 FILLER_0_29_293
*991 FILLER_0_29_3
*992 FILLER_0_29_305
*993 FILLER_0_29_317
*994 FILLER_0_29_329
*995 FILLER_0_29_335
*996 FILLER_0_29_337
*997 FILLER_0_29_349
*998 FILLER_0_29_39
*999 FILLER_0_29_51
*1000 FILLER_0_29_55
*1001 FILLER_0_29_57
*1002 FILLER_0_29_69
*1003 FILLER_0_29_81
*1004 FILLER_0_29_93
*1005 FILLER_0_2_109
*1006 FILLER_0_2_121
*1007 FILLER_0_2_133
*1008 FILLER_0_2_139
*1009 FILLER_0_2_141
*1010 FILLER_0_2_15
*1011 FILLER_0_2_153
*1012 FILLER_0_2_165
*1013 FILLER_0_2_177
*1014 FILLER_0_2_189
*1015 FILLER_0_2_195
*1016 FILLER_0_2_197
*1017 FILLER_0_2_209
*1018 FILLER_0_2_221
*1019 FILLER_0_2_233
*1020 FILLER_0_2_245
*1021 FILLER_0_2_251
*1022 FILLER_0_2_253
*1023 FILLER_0_2_265
*1024 FILLER_0_2_27
*1025 FILLER_0_2_277
*1026 FILLER_0_2_289
*1027 FILLER_0_2_29
*1028 FILLER_0_2_3
*1029 FILLER_0_2_301
*1030 FILLER_0_2_307
*1031 FILLER_0_2_309
*1032 FILLER_0_2_321
*1033 FILLER_0_2_333
*1034 FILLER_0_2_345
*1035 FILLER_0_2_41
*1036 FILLER_0_2_53
*1037 FILLER_0_2_65
*1038 FILLER_0_2_77
*1039 FILLER_0_2_83
*1040 FILLER_0_2_85
*1041 FILLER_0_2_97
*1042 FILLER_0_30_109
*1043 FILLER_0_30_121
*1044 FILLER_0_30_133
*1045 FILLER_0_30_139
*1046 FILLER_0_30_141
*1047 FILLER_0_30_15
*1048 FILLER_0_30_153
*1049 FILLER_0_30_165
*1050 FILLER_0_30_174
*1051 FILLER_0_30_182
*1052 FILLER_0_30_193
*1053 FILLER_0_30_197
*1054 FILLER_0_30_209
*1055 FILLER_0_30_221
*1056 FILLER_0_30_238
*1057 FILLER_0_30_253
*1058 FILLER_0_30_267
*1059 FILLER_0_30_27
*1060 FILLER_0_30_29
*1061 FILLER_0_30_290
*1062 FILLER_0_30_3
*1063 FILLER_0_30_302
*1064 FILLER_0_30_309
*1065 FILLER_0_30_321
*1066 FILLER_0_30_333
*1067 FILLER_0_30_345
*1068 FILLER_0_30_41
*1069 FILLER_0_30_53
*1070 FILLER_0_30_65
*1071 FILLER_0_30_77
*1072 FILLER_0_30_83
*1073 FILLER_0_30_85
*1074 FILLER_0_30_97
*1075 FILLER_0_31_105
*1076 FILLER_0_31_111
*1077 FILLER_0_31_113
*1078 FILLER_0_31_125
*1079 FILLER_0_31_137
*1080 FILLER_0_31_15
*1081 FILLER_0_31_187
*1082 FILLER_0_31_207
*1083 FILLER_0_31_211
*1084 FILLER_0_31_223
*1085 FILLER_0_31_230
*1086 FILLER_0_31_242
*1087 FILLER_0_31_254
*1088 FILLER_0_31_260
*1089 FILLER_0_31_266
*1090 FILLER_0_31_27
*1091 FILLER_0_31_278
*1092 FILLER_0_31_286
*1093 FILLER_0_31_298
*1094 FILLER_0_31_3
*1095 FILLER_0_31_310
*1096 FILLER_0_31_322
*1097 FILLER_0_31_334
*1098 FILLER_0_31_337
*1099 FILLER_0_31_349
*1100 FILLER_0_31_39
*1101 FILLER_0_31_51
*1102 FILLER_0_31_55
*1103 FILLER_0_31_57
*1104 FILLER_0_31_69
*1105 FILLER_0_31_81
*1106 FILLER_0_31_93
*1107 FILLER_0_32_109
*1108 FILLER_0_32_121
*1109 FILLER_0_32_133
*1110 FILLER_0_32_139
*1111 FILLER_0_32_141
*1112 FILLER_0_32_15
*1113 FILLER_0_32_153
*1114 FILLER_0_32_157
*1115 FILLER_0_32_168
*1116 FILLER_0_32_180
*1117 FILLER_0_32_186
*1118 FILLER_0_32_194
*1119 FILLER_0_32_206
*1120 FILLER_0_32_218
*1121 FILLER_0_32_230
*1122 FILLER_0_32_243
*1123 FILLER_0_32_260
*1124 FILLER_0_32_27
*1125 FILLER_0_32_271
*1126 FILLER_0_32_284
*1127 FILLER_0_32_289
*1128 FILLER_0_32_29
*1129 FILLER_0_32_3
*1130 FILLER_0_32_301
*1131 FILLER_0_32_307
*1132 FILLER_0_32_309
*1133 FILLER_0_32_321
*1134 FILLER_0_32_333
*1135 FILLER_0_32_345
*1136 FILLER_0_32_41
*1137 FILLER_0_32_53
*1138 FILLER_0_32_65
*1139 FILLER_0_32_77
*1140 FILLER_0_32_83
*1141 FILLER_0_32_85
*1142 FILLER_0_32_97
*1143 FILLER_0_33_105
*1144 FILLER_0_33_111
*1145 FILLER_0_33_113
*1146 FILLER_0_33_125
*1147 FILLER_0_33_137
*1148 FILLER_0_33_15
*1149 FILLER_0_33_158
*1150 FILLER_0_33_166
*1151 FILLER_0_33_169
*1152 FILLER_0_33_181
*1153 FILLER_0_33_193
*1154 FILLER_0_33_208
*1155 FILLER_0_33_214
*1156 FILLER_0_33_222
*1157 FILLER_0_33_229
*1158 FILLER_0_33_235
*1159 FILLER_0_33_240
*1160 FILLER_0_33_248
*1161 FILLER_0_33_253
*1162 FILLER_0_33_262
*1163 FILLER_0_33_27
*1164 FILLER_0_33_274
*1165 FILLER_0_33_290
*1166 FILLER_0_33_297
*1167 FILLER_0_33_3
*1168 FILLER_0_33_309
*1169 FILLER_0_33_321
*1170 FILLER_0_33_333
*1171 FILLER_0_33_337
*1172 FILLER_0_33_349
*1173 FILLER_0_33_39
*1174 FILLER_0_33_51
*1175 FILLER_0_33_55
*1176 FILLER_0_33_57
*1177 FILLER_0_33_69
*1178 FILLER_0_33_81
*1179 FILLER_0_33_93
*1180 FILLER_0_34_109
*1181 FILLER_0_34_121
*1182 FILLER_0_34_133
*1183 FILLER_0_34_139
*1184 FILLER_0_34_141
*1185 FILLER_0_34_15
*1186 FILLER_0_34_166
*1187 FILLER_0_34_178
*1188 FILLER_0_34_187
*1189 FILLER_0_34_195
*1190 FILLER_0_34_204
*1191 FILLER_0_34_223
*1192 FILLER_0_34_231
*1193 FILLER_0_34_239
*1194 FILLER_0_34_248
*1195 FILLER_0_34_253
*1196 FILLER_0_34_259
*1197 FILLER_0_34_27
*1198 FILLER_0_34_271
*1199 FILLER_0_34_275
*1200 FILLER_0_34_288
*1201 FILLER_0_34_29
*1202 FILLER_0_34_3
*1203 FILLER_0_34_304
*1204 FILLER_0_34_309
*1205 FILLER_0_34_321
*1206 FILLER_0_34_333
*1207 FILLER_0_34_345
*1208 FILLER_0_34_41
*1209 FILLER_0_34_53
*1210 FILLER_0_34_65
*1211 FILLER_0_34_77
*1212 FILLER_0_34_83
*1213 FILLER_0_34_85
*1214 FILLER_0_34_97
*1215 FILLER_0_35_105
*1216 FILLER_0_35_111
*1217 FILLER_0_35_113
*1218 FILLER_0_35_125
*1219 FILLER_0_35_137
*1220 FILLER_0_35_149
*1221 FILLER_0_35_15
*1222 FILLER_0_35_157
*1223 FILLER_0_35_169
*1224 FILLER_0_35_188
*1225 FILLER_0_35_196
*1226 FILLER_0_35_214
*1227 FILLER_0_35_222
*1228 FILLER_0_35_244
*1229 FILLER_0_35_250
*1230 FILLER_0_35_27
*1231 FILLER_0_35_271
*1232 FILLER_0_35_279
*1233 FILLER_0_35_281
*1234 FILLER_0_35_289
*1235 FILLER_0_35_299
*1236 FILLER_0_35_3
*1237 FILLER_0_35_311
*1238 FILLER_0_35_323
*1239 FILLER_0_35_335
*1240 FILLER_0_35_337
*1241 FILLER_0_35_349
*1242 FILLER_0_35_39
*1243 FILLER_0_35_51
*1244 FILLER_0_35_55
*1245 FILLER_0_35_57
*1246 FILLER_0_35_69
*1247 FILLER_0_35_81
*1248 FILLER_0_35_93
*1249 FILLER_0_36_109
*1250 FILLER_0_36_121
*1251 FILLER_0_36_133
*1252 FILLER_0_36_139
*1253 FILLER_0_36_141
*1254 FILLER_0_36_15
*1255 FILLER_0_36_153
*1256 FILLER_0_36_167
*1257 FILLER_0_36_181
*1258 FILLER_0_36_197
*1259 FILLER_0_36_205
*1260 FILLER_0_36_226
*1261 FILLER_0_36_238
*1262 FILLER_0_36_247
*1263 FILLER_0_36_251
*1264 FILLER_0_36_253
*1265 FILLER_0_36_257
*1266 FILLER_0_36_27
*1267 FILLER_0_36_271
*1268 FILLER_0_36_279
*1269 FILLER_0_36_284
*1270 FILLER_0_36_29
*1271 FILLER_0_36_3
*1272 FILLER_0_36_303
*1273 FILLER_0_36_307
*1274 FILLER_0_36_309
*1275 FILLER_0_36_321
*1276 FILLER_0_36_333
*1277 FILLER_0_36_345
*1278 FILLER_0_36_41
*1279 FILLER_0_36_53
*1280 FILLER_0_36_65
*1281 FILLER_0_36_77
*1282 FILLER_0_36_83
*1283 FILLER_0_36_85
*1284 FILLER_0_36_97
*1285 FILLER_0_37_105
*1286 FILLER_0_37_111
*1287 FILLER_0_37_113
*1288 FILLER_0_37_125
*1289 FILLER_0_37_137
*1290 FILLER_0_37_149
*1291 FILLER_0_37_15
*1292 FILLER_0_37_161
*1293 FILLER_0_37_167
*1294 FILLER_0_37_169
*1295 FILLER_0_37_203
*1296 FILLER_0_37_216
*1297 FILLER_0_37_225
*1298 FILLER_0_37_246
*1299 FILLER_0_37_255
*1300 FILLER_0_37_266
*1301 FILLER_0_37_27
*1302 FILLER_0_37_272
*1303 FILLER_0_37_3
*1304 FILLER_0_37_301
*1305 FILLER_0_37_313
*1306 FILLER_0_37_325
*1307 FILLER_0_37_333
*1308 FILLER_0_37_337
*1309 FILLER_0_37_349
*1310 FILLER_0_37_39
*1311 FILLER_0_37_51
*1312 FILLER_0_37_55
*1313 FILLER_0_37_57
*1314 FILLER_0_37_69
*1315 FILLER_0_37_81
*1316 FILLER_0_37_93
*1317 FILLER_0_38_104
*1318 FILLER_0_38_110
*1319 FILLER_0_38_116
*1320 FILLER_0_38_122
*1321 FILLER_0_38_128
*1322 FILLER_0_38_134
*1323 FILLER_0_38_141
*1324 FILLER_0_38_146
*1325 FILLER_0_38_15
*1326 FILLER_0_38_152
*1327 FILLER_0_38_158
*1328 FILLER_0_38_166
*1329 FILLER_0_38_173
*1330 FILLER_0_38_179
*1331 FILLER_0_38_191
*1332 FILLER_0_38_195
*1333 FILLER_0_38_197
*1334 FILLER_0_38_220
*1335 FILLER_0_38_225
*1336 FILLER_0_38_233
*1337 FILLER_0_38_241
*1338 FILLER_0_38_27
*1339 FILLER_0_38_272
*1340 FILLER_0_38_29
*1341 FILLER_0_38_290
*1342 FILLER_0_38_3
*1343 FILLER_0_38_306
*1344 FILLER_0_38_309
*1345 FILLER_0_38_321
*1346 FILLER_0_38_333
*1347 FILLER_0_38_337
*1348 FILLER_0_38_349
*1349 FILLER_0_38_41
*1350 FILLER_0_38_53
*1351 FILLER_0_38_57
*1352 FILLER_0_38_68
*1353 FILLER_0_38_74
*1354 FILLER_0_38_80
*1355 FILLER_0_38_88
*1356 FILLER_0_38_92
*1357 FILLER_0_38_98
*1358 FILLER_0_3_105
*1359 FILLER_0_3_111
*1360 FILLER_0_3_113
*1361 FILLER_0_3_125
*1362 FILLER_0_3_137
*1363 FILLER_0_3_149
*1364 FILLER_0_3_15
*1365 FILLER_0_3_161
*1366 FILLER_0_3_167
*1367 FILLER_0_3_169
*1368 FILLER_0_3_181
*1369 FILLER_0_3_193
*1370 FILLER_0_3_205
*1371 FILLER_0_3_217
*1372 FILLER_0_3_223
*1373 FILLER_0_3_225
*1374 FILLER_0_3_237
*1375 FILLER_0_3_249
*1376 FILLER_0_3_261
*1377 FILLER_0_3_27
*1378 FILLER_0_3_273
*1379 FILLER_0_3_279
*1380 FILLER_0_3_281
*1381 FILLER_0_3_293
*1382 FILLER_0_3_3
*1383 FILLER_0_3_305
*1384 FILLER_0_3_317
*1385 FILLER_0_3_329
*1386 FILLER_0_3_335
*1387 FILLER_0_3_337
*1388 FILLER_0_3_349
*1389 FILLER_0_3_39
*1390 FILLER_0_3_51
*1391 FILLER_0_3_55
*1392 FILLER_0_3_57
*1393 FILLER_0_3_69
*1394 FILLER_0_3_81
*1395 FILLER_0_3_93
*1396 FILLER_0_4_109
*1397 FILLER_0_4_121
*1398 FILLER_0_4_133
*1399 FILLER_0_4_139
*1400 FILLER_0_4_141
*1401 FILLER_0_4_15
*1402 FILLER_0_4_153
*1403 FILLER_0_4_165
*1404 FILLER_0_4_177
*1405 FILLER_0_4_189
*1406 FILLER_0_4_195
*1407 FILLER_0_4_197
*1408 FILLER_0_4_209
*1409 FILLER_0_4_221
*1410 FILLER_0_4_233
*1411 FILLER_0_4_245
*1412 FILLER_0_4_251
*1413 FILLER_0_4_253
*1414 FILLER_0_4_265
*1415 FILLER_0_4_27
*1416 FILLER_0_4_277
*1417 FILLER_0_4_289
*1418 FILLER_0_4_29
*1419 FILLER_0_4_3
*1420 FILLER_0_4_301
*1421 FILLER_0_4_307
*1422 FILLER_0_4_309
*1423 FILLER_0_4_321
*1424 FILLER_0_4_333
*1425 FILLER_0_4_345
*1426 FILLER_0_4_41
*1427 FILLER_0_4_53
*1428 FILLER_0_4_65
*1429 FILLER_0_4_77
*1430 FILLER_0_4_83
*1431 FILLER_0_4_85
*1432 FILLER_0_4_97
*1433 FILLER_0_5_105
*1434 FILLER_0_5_111
*1435 FILLER_0_5_113
*1436 FILLER_0_5_125
*1437 FILLER_0_5_137
*1438 FILLER_0_5_149
*1439 FILLER_0_5_15
*1440 FILLER_0_5_161
*1441 FILLER_0_5_167
*1442 FILLER_0_5_169
*1443 FILLER_0_5_181
*1444 FILLER_0_5_193
*1445 FILLER_0_5_205
*1446 FILLER_0_5_217
*1447 FILLER_0_5_223
*1448 FILLER_0_5_225
*1449 FILLER_0_5_237
*1450 FILLER_0_5_249
*1451 FILLER_0_5_261
*1452 FILLER_0_5_27
*1453 FILLER_0_5_273
*1454 FILLER_0_5_279
*1455 FILLER_0_5_281
*1456 FILLER_0_5_293
*1457 FILLER_0_5_3
*1458 FILLER_0_5_305
*1459 FILLER_0_5_317
*1460 FILLER_0_5_329
*1461 FILLER_0_5_335
*1462 FILLER_0_5_337
*1463 FILLER_0_5_349
*1464 FILLER_0_5_39
*1465 FILLER_0_5_51
*1466 FILLER_0_5_55
*1467 FILLER_0_5_57
*1468 FILLER_0_5_69
*1469 FILLER_0_5_81
*1470 FILLER_0_5_93
*1471 FILLER_0_6_109
*1472 FILLER_0_6_121
*1473 FILLER_0_6_133
*1474 FILLER_0_6_139
*1475 FILLER_0_6_141
*1476 FILLER_0_6_15
*1477 FILLER_0_6_153
*1478 FILLER_0_6_165
*1479 FILLER_0_6_177
*1480 FILLER_0_6_189
*1481 FILLER_0_6_195
*1482 FILLER_0_6_197
*1483 FILLER_0_6_209
*1484 FILLER_0_6_221
*1485 FILLER_0_6_233
*1486 FILLER_0_6_245
*1487 FILLER_0_6_251
*1488 FILLER_0_6_253
*1489 FILLER_0_6_265
*1490 FILLER_0_6_27
*1491 FILLER_0_6_277
*1492 FILLER_0_6_289
*1493 FILLER_0_6_29
*1494 FILLER_0_6_3
*1495 FILLER_0_6_301
*1496 FILLER_0_6_307
*1497 FILLER_0_6_309
*1498 FILLER_0_6_321
*1499 FILLER_0_6_333
*1500 FILLER_0_6_345
*1501 FILLER_0_6_41
*1502 FILLER_0_6_53
*1503 FILLER_0_6_65
*1504 FILLER_0_6_77
*1505 FILLER_0_6_83
*1506 FILLER_0_6_85
*1507 FILLER_0_6_97
*1508 FILLER_0_7_105
*1509 FILLER_0_7_111