*SPEF "ieee 1481-1999"
*DESIGN "tt_um_wokwi_380361576213660673"
*DATE "11:11:11 Fri 11 11, 1111"
*VENDOR "OpenRCX"
*PROGRAM "Parallel Extraction"
*VERSION "1.0"
*DESIGN_FLOW "NAME_SCOPE LOCAL" "PIN_CAP NONE"
*DIVIDER /
*DELIMITER :
*BUS_DELIMITER []
*T_UNIT 1 NS
*C_UNIT 1 PF
*R_UNIT 1 OHM
*L_UNIT 1 HENRY

*NAME_MAP
*3 clk
*4 ena
*5 rst_n
*6 ui_in[0]
*7 ui_in[1]
*8 ui_in[2]
*9 ui_in[3]
*10 ui_in[4]
*11 ui_in[5]
*12 ui_in[6]
*13 ui_in[7]
*14 uio_in[0]
*15 uio_in[1]
*16 uio_in[2]
*17 uio_in[3]
*18 uio_in[4]
*19 uio_in[5]
*20 uio_in[6]
*21 uio_in[7]
*22 net21
*23 net22
*24 net35
*25 net36
*26 net23
*27 net24
*28 net25
*29 net26
*30 net27
*31 net28
*32 net29
*33 net30
*34 net31
*35 net32
*36 net33
*37 net34
*38 uo_out[0]
*39 uo_out[1]
*40 uo_out[2]
*41 uo_out[3]
*42 uo_out[4]
*43 uo_out[5]
*44 uo_out[6]
*45 uo_out[7]
*46 _000_
*47 _001_
*48 _002_
*49 _003_
*50 _005_
*51 _006_
*52 _008_
*53 _009_
*54 _011_
*55 _012_
*56 _013_
*57 _014_
*58 _015_
*59 _016_
*60 _017_
*61 _018_
*62 _019_
*63 _020_
*64 _021_
*65 _022_
*66 _023_
*67 _024_
*68 _025_
*69 _026_
*70 _027_
*71 _028_
*72 _029_
*73 _030_
*74 _031_
*75 _032_
*76 _033_
*77 _034_
*78 _035_
*79 _036_
*80 _037_
*81 _038_
*82 _039_
*83 _040_
*84 _041_
*85 _042_
*86 _043_
*87 _044_
*88 _045_
*89 _046_
*90 _047_
*91 _048_
*92 _049_
*93 _050_
*94 _051_
*95 _052_
*96 _053_
*97 _054_
*98 _055_
*99 _056_
*100 _057_
*101 _058_
*102 _059_
*103 _060_
*104 _061_
*105 _062_
*106 _063_
*107 _064_
*108 _065_
*109 _066_
*110 _067_
*111 _068_
*112 _069_
*113 _070_
*114 _071_
*115 _072_
*116 _073_
*117 _074_
*118 _075_
*119 _076_
*120 _077_
*121 _078_
*122 _079_
*123 _080_
*124 _081_
*125 _082_
*126 _083_
*127 _084_
*128 _085_
*129 _086_
*130 _087_
*131 _088_
*132 _089_
*133 _090_
*134 _091_
*135 _092_
*136 _093_
*137 _094_
*138 _095_
*139 _096_
*140 _097_
*141 _098_
*142 _099_
*143 _100_
*144 _101_
*145 _102_
*146 _103_
*147 _104_
*148 _105_
*149 _106_
*150 _107_
*151 _108_
*152 _109_
*153 _110_
*154 _111_
*155 _112_
*156 _113_
*157 _114_
*158 _115_
*159 _116_
*160 _117_
*161 _118_
*162 _119_
*163 _120_
*164 _121_
*165 _122_
*166 _123_
*167 _124_
*168 _125_
*169 _126_
*170 _127_
*171 _128_
*172 _129_
*173 _130_
*174 _131_
*175 _132_
*176 _133_
*177 _134_
*178 _135_
*179 _136_
*180 _137_
*181 _138_
*182 _139_
*183 _140_
*184 _141_
*185 _142_
*186 _143_
*187 _144_
*188 _145_
*189 _146_
*190 _147_
*191 _148_
*192 _149_
*193 _150_
*194 _151_
*195 _152_
*196 _153_
*197 _154_
*198 _155_
*199 _156_
*200 _157_
*201 _158_
*202 _159_
*203 _160_
*204 _161_
*205 _162_
*206 _163_
*207 _164_
*208 _165_
*209 _166_
*210 _167_
*211 _168_
*212 _169_
*213 _170_
*214 _171_
*215 _172_
*216 _173_
*217 _174_
*218 _175_
*219 _176_
*220 _177_
*221 _178_
*222 _179_
*223 _180_
*224 _181_
*225 _182_
*226 _183_
*227 _184_
*228 _185_
*229 _186_
*230 _187_
*231 _188_
*232 _189_
*233 _190_
*234 _191_
*235 _192_
*236 _193_
*237 _194_
*238 _195_
*239 _196_
*240 _197_
*241 _198_
*242 _199_
*243 _200_
*244 _201_
*245 _202_
*246 _203_
*247 _204_
*248 _205_
*249 _206_
*250 _207_
*251 _208_
*252 _209_
*253 _210_
*254 _211_
*255 _212_
*256 _213_
*257 _214_
*258 _215_
*259 _216_
*260 _217_
*261 _218_
*262 _219_
*263 _220_
*264 _221_
*265 _222_
*266 _223_
*267 _224_
*268 _225_
*269 _226_
*270 _227_
*271 _228_
*272 _229_
*273 _230_
*274 _231_
*275 _232_
*276 _233_
*277 _234_
*278 _235_
*279 _236_
*280 _237_
*281 _238_
*282 _239_
*283 _240_
*284 _241_
*285 _242_
*286 _243_
*287 _244_
*288 _245_
*289 _246_
*290 _247_
*291 _248_
*292 _249_
*293 _250_
*294 _251_
*295 _252_
*296 _253_
*297 _254_
*298 _255_
*299 _256_
*300 _257_
*301 _258_
*302 _259_
*303 _260_
*304 _261_
*305 _262_
*306 _263_
*307 _264_
*308 _265_
*309 _266_
*310 _267_
*311 _268_
*312 _269_
*313 and1\.a
*314 and1\.out
*315 and10\.b
*316 and100\.a
*317 and103\.a
*318 and103\.b
*319 and105\.b
*320 and107\.a
*321 and107\.b
*322 and108\.b
*323 and109\.b
*324 and111\.b
*325 and113\.b
*326 and12\.b
*327 and120\.a
*328 and121\.b
*329 and126\.out
*330 and127\.out
*331 and13\.b
*332 and132\.b
*333 and135\.out
*334 and148\.a
*335 and15\.b
*336 and150\.b
*337 and152\.b
*338 and16\.b
*339 and175\.b
*340 and177\.b
*341 and18\.b
*342 and19\.b
*343 and21\.b
*344 and22\.b
*345 and24\.b
*346 and25\.b
*347 and254\.b
*348 and256\.b
*349 and258\.b
*350 and260\.b
*351 and262\.b
*352 and264\.b
*353 and266\.b
*354 and268\.b
*355 and270\.b
*356 and272\.b
*357 and274\.b
*358 and276\.b
*359 and278\.b
*360 and28\.b
*361 and280\.b
*362 and282\.b
*363 and30\.b
*364 and45\.b
*365 and62\.b
*366 and81\.b
*367 and83\.b
*368 clknet_0_clk
*369 clknet_2_0__leaf_clk
*370 clknet_2_1__leaf_clk
*371 clknet_2_2__leaf_clk
*372 clknet_2_3__leaf_clk
*373 flop18\.q
*374 flop2\.q
*375 flop3\.q
*376 flop30\.d
*377 flop30\.q
*378 flop31\.d
*379 flop31\.q
*380 flop48\.d
*381 flop49\.d
*382 flop50\.d
*383 flop51\.d
*384 flop52\.d
*385 flop53\.d
*386 flop54\.d
*387 flop55\.d
*388 flop56\.d
*389 flop57\.d
*390 flop58\.d
*391 flop59\.d
*392 flop60\.d
*393 flop61\.d
*394 flop62\.d
*395 flop8\.q
*396 mux14\.sel
*397 mux17\.sel
*398 net1
*399 net10
*400 net100
*401 net101
*402 net102
*403 net103
*404 net104
*405 net105
*406 net106
*407 net107
*408 net108
*409 net109
*410 net11
*411 net110
*412 net111
*413 net112
*414 net113
*415 net114
*416 net115
*417 net116
*418 net117
*419 net118
*420 net119
*421 net12
*422 net120
*423 net121
*424 net122
*425 net123
*426 net124
*427 net125
*428 net126
*429 net127
*430 net128
*431 net129
*432 net13
*433 net130
*434 net131
*435 net132
*436 net133
*437 net134
*438 net135
*439 net136
*440 net137
*441 net138
*442 net139
*443 net14
*444 net140
*445 net141
*446 net142
*447 net143
*448 net144
*449 net145
*450 net146
*451 net147
*452 net148
*453 net149
*454 net15
*455 net150
*456 net151
*457 net152
*458 net153
*459 net154
*460 net155
*461 net156
*462 net157
*463 net158
*464 net159
*465 net16
*466 net160
*467 net161
*468 net162
*469 net163
*470 net164
*471 net165
*472 net166
*473 net167
*474 net168
*475 net169
*476 net17
*477 net170
*478 net171
*479 net172
*480 net173
*481 net174
*482 net175
*483 net176
*484 net177
*485 net178
*486 net179
*487 net18
*488 net180
*489 net181
*490 net182
*491 net183
*492 net184
*493 net185
*494 net186
*495 net187
*496 net188
*497 net189
*498 net19
*499 net190
*500 net191
*501 net192
*502 net193
*503 net194
*504 net195
*505 net196
*506 net197
*507 net198
*508 net199
*509 net2
*510 net20
*511 net200
*512 net3
*513 net37
*514 net38
*515 net39
*516 net4
*517 net40
*518 net41
*519 net42
*520 net43
*521 net44
*522 net45
*523 net46
*524 net47
*525 net48
*526 net49
*527 net5
*528 net50
*529 net51
*530 net52
*531 net53
*532 net54
*533 net55
*534 net56
*535 net57
*536 net58
*537 net59
*538 net6
*539 net60
*540 net61
*541 net62
*542 net63
*543 net64
*544 net65
*545 net66
*546 net67
*547 net68
*548 net69
*549 net7
*550 net70
*551 net71
*552 net72
*553 net73
*554 net74
*555 net75
*556 net76
*557 net77
*558 net78
*559 net79
*560 net8
*561 net80
*562 net81
*563 net82
*564 net83
*565 net84
*566 net85
*567 net86
*568 net87
*569 net88
*570 net89
*571 net9
*572 net90
*573 net91
*574 net92
*575 net93
*576 net94
*577 net95
*578 net96
*579 net97
*580 net98
*581 net99
*582 or10\.out
*583 or12\.out
*584 or14\.out
*585 or16\.out
*586 or18\.out
*587 FILLER_0_0_109
*588 FILLER_0_0_113
*589 FILLER_0_0_125
*590 FILLER_0_0_137
*591 FILLER_0_0_141
*592 FILLER_0_0_15
*593 FILLER_0_0_153
*594 FILLER_0_0_165
*595 FILLER_0_0_169
*596 FILLER_0_0_181
*597 FILLER_0_0_193
*598 FILLER_0_0_197
*599 FILLER_0_0_209
*600 FILLER_0_0_221
*601 FILLER_0_0_225
*602 FILLER_0_0_237
*603 FILLER_0_0_249
*604 FILLER_0_0_253
*605 FILLER_0_0_265
*606 FILLER_0_0_27
*607 FILLER_0_0_277
*608 FILLER_0_0_281
*609 FILLER_0_0_29
*610 FILLER_0_0_293
*611 FILLER_0_0_3
*612 FILLER_0_0_305
*613 FILLER_0_0_309
*614 FILLER_0_0_321
*615 FILLER_0_0_333
*616 FILLER_0_0_337
*617 FILLER_0_0_349
*618 FILLER_0_0_41
*619 FILLER_0_0_53
*620 FILLER_0_0_57
*621 FILLER_0_0_69
*622 FILLER_0_0_81
*623 FILLER_0_0_85
*624 FILLER_0_0_97
*625 FILLER_0_10_109
*626 FILLER_0_10_121
*627 FILLER_0_10_133
*628 FILLER_0_10_139
*629 FILLER_0_10_141
*630 FILLER_0_10_15
*631 FILLER_0_10_153
*632 FILLER_0_10_165
*633 FILLER_0_10_177
*634 FILLER_0_10_189
*635 FILLER_0_10_195
*636 FILLER_0_10_197
*637 FILLER_0_10_209
*638 FILLER_0_10_221
*639 FILLER_0_10_233
*640 FILLER_0_10_245
*641 FILLER_0_10_251
*642 FILLER_0_10_253
*643 FILLER_0_10_265
*644 FILLER_0_10_27
*645 FILLER_0_10_277
*646 FILLER_0_10_289
*647 FILLER_0_10_29
*648 FILLER_0_10_3
*649 FILLER_0_10_301
*650 FILLER_0_10_307
*651 FILLER_0_10_309
*652 FILLER_0_10_321
*653 FILLER_0_10_333
*654 FILLER_0_10_345
*655 FILLER_0_10_41
*656 FILLER_0_10_53
*657 FILLER_0_10_65
*658 FILLER_0_10_77
*659 FILLER_0_10_83
*660 FILLER_0_10_85
*661 FILLER_0_10_97
*662 FILLER_0_11_105
*663 FILLER_0_11_111
*664 FILLER_0_11_113
*665 FILLER_0_11_125
*666 FILLER_0_11_137
*667 FILLER_0_11_149
*668 FILLER_0_11_15
*669 FILLER_0_11_161
*670 FILLER_0_11_167
*671 FILLER_0_11_169
*672 FILLER_0_11_181
*673 FILLER_0_11_193
*674 FILLER_0_11_205
*675 FILLER_0_11_217
*676 FILLER_0_11_223
*677 FILLER_0_11_225
*678 FILLER_0_11_237
*679 FILLER_0_11_249
*680 FILLER_0_11_261
*681 FILLER_0_11_27
*682 FILLER_0_11_273
*683 FILLER_0_11_279
*684 FILLER_0_11_281
*685 FILLER_0_11_293
*686 FILLER_0_11_3
*687 FILLER_0_11_305
*688 FILLER_0_11_317
*689 FILLER_0_11_329
*690 FILLER_0_11_335
*691 FILLER_0_11_337
*692 FILLER_0_11_349
*693 FILLER_0_11_39
*694 FILLER_0_11_51
*695 FILLER_0_11_55
*696 FILLER_0_11_57
*697 FILLER_0_11_69
*698 FILLER_0_11_81
*699 FILLER_0_11_93
*700 FILLER_0_12_109
*701 FILLER_0_12_121
*702 FILLER_0_12_133
*703 FILLER_0_12_139
*704 FILLER_0_12_141
*705 FILLER_0_12_15
*706 FILLER_0_12_153
*707 FILLER_0_12_165
*708 FILLER_0_12_177
*709 FILLER_0_12_189
*710 FILLER_0_12_195
*711 FILLER_0_12_197
*712 FILLER_0_12_209
*713 FILLER_0_12_221
*714 FILLER_0_12_233
*715 FILLER_0_12_245
*716 FILLER_0_12_251
*717 FILLER_0_12_253
*718 FILLER_0_12_265
*719 FILLER_0_12_27
*720 FILLER_0_12_277
*721 FILLER_0_12_289
*722 FILLER_0_12_29
*723 FILLER_0_12_3
*724 FILLER_0_12_301
*725 FILLER_0_12_307
*726 FILLER_0_12_309
*727 FILLER_0_12_321
*728 FILLER_0_12_333
*729 FILLER_0_12_345
*730 FILLER_0_12_41
*731 FILLER_0_12_53
*732 FILLER_0_12_65
*733 FILLER_0_12_77
*734 FILLER_0_12_83
*735 FILLER_0_12_85
*736 FILLER_0_12_97
*737 FILLER_0_13_105
*738 FILLER_0_13_111
*739 FILLER_0_13_113
*740 FILLER_0_13_125
*741 FILLER_0_13_137
*742 FILLER_0_13_149
*743 FILLER_0_13_15
*744 FILLER_0_13_161
*745 FILLER_0_13_167
*746 FILLER_0_13_169
*747 FILLER_0_13_181
*748 FILLER_0_13_193
*749 FILLER_0_13_205
*750 FILLER_0_13_213
*751 FILLER_0_13_218
*752 FILLER_0_13_225
*753 FILLER_0_13_233
*754 FILLER_0_13_252
*755 FILLER_0_13_264
*756 FILLER_0_13_27
*757 FILLER_0_13_276
*758 FILLER_0_13_281
*759 FILLER_0_13_293
*760 FILLER_0_13_3
*761 FILLER_0_13_305
*762 FILLER_0_13_317
*763 FILLER_0_13_329
*764 FILLER_0_13_335
*765 FILLER_0_13_337
*766 FILLER_0_13_349
*767 FILLER_0_13_39
*768 FILLER_0_13_51
*769 FILLER_0_13_55
*770 FILLER_0_13_57
*771 FILLER_0_13_69
*772 FILLER_0_13_81
*773 FILLER_0_13_93
*774 FILLER_0_14_109
*775 FILLER_0_14_121
*776 FILLER_0_14_133
*777 FILLER_0_14_139
*778 FILLER_0_14_141
*779 FILLER_0_14_15
*780 FILLER_0_14_153
*781 FILLER_0_14_165
*782 FILLER_0_14_177
*783 FILLER_0_14_189
*784 FILLER_0_14_195
*785 FILLER_0_14_197
*786 FILLER_0_14_205
*787 FILLER_0_14_241
*788 FILLER_0_14_269
*789 FILLER_0_14_27
*790 FILLER_0_14_281
*791 FILLER_0_14_29
*792 FILLER_0_14_293
*793 FILLER_0_14_3
*794 FILLER_0_14_305
*795 FILLER_0_14_309
*796 FILLER_0_14_321
*797 FILLER_0_14_333
*798 FILLER_0_14_345
*799 FILLER_0_14_41
*800 FILLER_0_14_53
*801 FILLER_0_14_65
*802 FILLER_0_14_77
*803 FILLER_0_14_83
*804 FILLER_0_14_85
*805 FILLER_0_14_97
*806 FILLER_0_15_105
*807 FILLER_0_15_111
*808 FILLER_0_15_113
*809 FILLER_0_15_125
*810 FILLER_0_15_137
*811 FILLER_0_15_149
*812 FILLER_0_15_15
*813 FILLER_0_15_161
*814 FILLER_0_15_167
*815 FILLER_0_15_169
*816 FILLER_0_15_181
*817 FILLER_0_15_211
*818 FILLER_0_15_223
*819 FILLER_0_15_225
*820 FILLER_0_15_233
*821 FILLER_0_15_244
*822 FILLER_0_15_27
*823 FILLER_0_15_271
*824 FILLER_0_15_279
*825 FILLER_0_15_281
*826 FILLER_0_15_293
*827 FILLER_0_15_3
*828 FILLER_0_15_305
*829 FILLER_0_15_317
*830 FILLER_0_15_329
*831 FILLER_0_15_335
*832 FILLER_0_15_337
*833 FILLER_0_15_349
*834 FILLER_0_15_39
*835 FILLER_0_15_51
*836 FILLER_0_15_55
*837 FILLER_0_15_57
*838 FILLER_0_15_69
*839 FILLER_0_15_81
*840 FILLER_0_15_93
*841 FILLER_0_16_109
*842 FILLER_0_16_121
*843 FILLER_0_16_133
*844 FILLER_0_16_139
*845 FILLER_0_16_141
*846 FILLER_0_16_15
*847 FILLER_0_16_153
*848 FILLER_0_16_175
*849 FILLER_0_16_179
*850 FILLER_0_16_206
*851 FILLER_0_16_210
*852 FILLER_0_16_228
*853 FILLER_0_16_261
*854 FILLER_0_16_27
*855 FILLER_0_16_271
*856 FILLER_0_16_289
*857 FILLER_0_16_29
*858 FILLER_0_16_3
*859 FILLER_0_16_301
*860 FILLER_0_16_307
*861 FILLER_0_16_309
*862 FILLER_0_16_321
*863 FILLER_0_16_333
*864 FILLER_0_16_345
*865 FILLER_0_16_41
*866 FILLER_0_16_53
*867 FILLER_0_16_65
*868 FILLER_0_16_77
*869 FILLER_0_16_83
*870 FILLER_0_16_85
*871 FILLER_0_16_97
*872 FILLER_0_17_105
*873 FILLER_0_17_111
*874 FILLER_0_17_113
*875 FILLER_0_17_125
*876 FILLER_0_17_137
*877 FILLER_0_17_149
*878 FILLER_0_17_15
*879 FILLER_0_17_181
*880 FILLER_0_17_193
*881 FILLER_0_17_208
*882 FILLER_0_17_212
*883 FILLER_0_17_222
*884 FILLER_0_17_228
*885 FILLER_0_17_242
*886 FILLER_0_17_250
*887 FILLER_0_17_255
*888 FILLER_0_17_263
*889 FILLER_0_17_267
*890 FILLER_0_17_27
*891 FILLER_0_17_271
*892 FILLER_0_17_279
*893 FILLER_0_17_297
*894 FILLER_0_17_3
*895 FILLER_0_17_309
*896 FILLER_0_17_321
*897 FILLER_0_17_333
*898 FILLER_0_17_337
*899 FILLER_0_17_349
*900 FILLER_0_17_39
*901 FILLER_0_17_51
*902 FILLER_0_17_55
*903 FILLER_0_17_57
*904 FILLER_0_17_69
*905 FILLER_0_17_81
*906 FILLER_0_17_93
*907 FILLER_0_18_109
*908 FILLER_0_18_121
*909 FILLER_0_18_133
*910 FILLER_0_18_139
*911 FILLER_0_18_141
*912 FILLER_0_18_15
*913 FILLER_0_18_153
*914 FILLER_0_18_182
*915 FILLER_0_18_190
*916 FILLER_0_18_200
*917 FILLER_0_18_212
*918 FILLER_0_18_220
*919 FILLER_0_18_231
*920 FILLER_0_18_235
*921 FILLER_0_18_251
*922 FILLER_0_18_27
*923 FILLER_0_18_274
*924 FILLER_0_18_29
*925 FILLER_0_18_293
*926 FILLER_0_18_3
*927 FILLER_0_18_305
*928 FILLER_0_18_309
*929 FILLER_0_18_321
*930 FILLER_0_18_333
*931 FILLER_0_18_345
*932 FILLER_0_18_41
*933 FILLER_0_18_53
*934 FILLER_0_18_65
*935 FILLER_0_18_77
*936 FILLER_0_18_83
*937 FILLER_0_18_85
*938 FILLER_0_18_97
*939 FILLER_0_19_105
*940 FILLER_0_19_111
*941 FILLER_0_19_113
*942 FILLER_0_19_125
*943 FILLER_0_19_137
*944 FILLER_0_19_149
*945 FILLER_0_19_15
*946 FILLER_0_19_157
*947 FILLER_0_19_163
*948 FILLER_0_19_167
*949 FILLER_0_19_178
*950 FILLER_0_19_182
*951 FILLER_0_19_211
*952 FILLER_0_19_222
*953 FILLER_0_19_238
*954 FILLER_0_19_247
*955 FILLER_0_19_261
*956 FILLER_0_19_269
*957 FILLER_0_19_27
*958 FILLER_0_19_297
*959 FILLER_0_19_3
*960 FILLER_0_19_309
*961 FILLER_0_19_321
*962 FILLER_0_19_333
*963 FILLER_0_19_337
*964 FILLER_0_19_349
*965 FILLER_0_19_39
*966 FILLER_0_19_51
*967 FILLER_0_19_55
*968 FILLER_0_19_57
*969 FILLER_0_19_69
*970 FILLER_0_19_81
*971 FILLER_0_19_93
*972 FILLER_0_1_105
*973 FILLER_0_1_111
*974 FILLER_0_1_113
*975 FILLER_0_1_125
*976 FILLER_0_1_137
*977 FILLER_0_1_149
*978 FILLER_0_1_15
*979 FILLER_0_1_161
*980 FILLER_0_1_167
*981 FILLER_0_1_169
*982 FILLER_0_1_181
*983 FILLER_0_1_193
*984 FILLER_0_1_205
*985 FILLER_0_1_217
*986 FILLER_0_1_223
*987 FILLER_0_1_225
*988 FILLER_0_1_237
*989 FILLER_0_1_249
*990 FILLER_0_1_261
*991 FILLER_0_1_27
*992 FILLER_0_1_273
*993 FILLER_0_1_279
*994 FILLER_0_1_281
*995 FILLER_0_1_293
*996 FILLER_0_1_3
*997 FILLER_0_1_305
*998 FILLER_0_1_317
*999 FILLER_0_1_329
*1000 FILLER_0_1_335
*1001 FILLER_0_1_337
*1002 FILLER_0_1_349
*1003 FILLER_0_1_39
*1004 FILLER_0_1_51
*1005 FILLER_0_1_55
*1006 FILLER_0_1_57
*1007 FILLER_0_1_69
*1008 FILLER_0_1_81
*1009 FILLER_0_1_93
*1010 FILLER_0_20_109
*1011 FILLER_0_20_121
*1012 FILLER_0_20_133
*1013 FILLER_0_20_139
*1014 FILLER_0_20_141
*1015 FILLER_0_20_15
*1016 FILLER_0_20_153
*1017 FILLER_0_20_162
*1018 FILLER_0_20_174
*1019 FILLER_0_20_186
*1020 FILLER_0_20_229
*1021 FILLER_0_20_234
*1022 FILLER_0_20_251
*1023 FILLER_0_20_253
*1024 FILLER_0_20_265
*1025 FILLER_0_20_27
*1026 FILLER_0_20_277
*1027 FILLER_0_20_289
*1028 FILLER_0_20_29
*1029 FILLER_0_20_3
*1030 FILLER_0_20_301
*1031 FILLER_0_20_307
*1032 FILLER_0_20_309
*1033 FILLER_0_20_321
*1034 FILLER_0_20_325
*1035 FILLER_0_20_347
*1036 FILLER_0_20_41
*1037 FILLER_0_20_53
*1038 FILLER_0_20_65
*1039 FILLER_0_20_77
*1040 FILLER_0_20_83
*1041 FILLER_0_20_85
*1042 FILLER_0_20_97
*1043 FILLER_0_21_105
*1044 FILLER_0_21_111
*1045 FILLER_0_21_113
*1046 FILLER_0_21_125
*1047 FILLER_0_21_137
*1048 FILLER_0_21_148
*1049 FILLER_0_21_15
*1050 FILLER_0_21_176
*1051 FILLER_0_21_188
*1052 FILLER_0_21_199
*1053 FILLER_0_21_204
*1054 FILLER_0_21_216
*1055 FILLER_0_21_228
*1056 FILLER_0_21_234
*1057 FILLER_0_21_242
*1058 FILLER_0_21_247
*1059 FILLER_0_21_259
*1060 FILLER_0_21_27
*1061 FILLER_0_21_271
*1062 FILLER_0_21_279
*1063 FILLER_0_21_281
*1064 FILLER_0_21_285
*1065 FILLER_0_21_3
*1066 FILLER_0_21_313
*1067 FILLER_0_21_321
*1068 FILLER_0_21_329
*1069 FILLER_0_21_335
*1070 FILLER_0_21_345
*1071 FILLER_0_21_39
*1072 FILLER_0_21_51
*1073 FILLER_0_21_55
*1074 FILLER_0_21_57
*1075 FILLER_0_21_69
*1076 FILLER_0_21_81
*1077 FILLER_0_21_93
*1078 FILLER_0_22_109
*1079 FILLER_0_22_121
*1080 FILLER_0_22_133
*1081 FILLER_0_22_139
*1082 FILLER_0_22_141
*1083 FILLER_0_22_15
*1084 FILLER_0_22_159
*1085 FILLER_0_22_182
*1086 FILLER_0_22_194
*1087 FILLER_0_22_204
*1088 FILLER_0_22_212
*1089 FILLER_0_22_220
*1090 FILLER_0_22_233
*1091 FILLER_0_22_261
*1092 FILLER_0_22_27
*1093 FILLER_0_22_273
*1094 FILLER_0_22_287
*1095 FILLER_0_22_29
*1096 FILLER_0_22_3
*1097 FILLER_0_22_307
*1098 FILLER_0_22_309
*1099 FILLER_0_22_332
*1100 FILLER_0_22_340
*1101 FILLER_0_22_41
*1102 FILLER_0_22_53
*1103 FILLER_0_22_65
*1104 FILLER_0_22_77
*1105 FILLER_0_22_83
*1106 FILLER_0_22_85
*1107 FILLER_0_22_97
*1108 FILLER_0_23_105
*1109 FILLER_0_23_111
*1110 FILLER_0_23_113
*1111 FILLER_0_23_125
*1112 FILLER_0_23_131
*1113 FILLER_0_23_136
*1114 FILLER_0_23_142
*1115 FILLER_0_23_15
*1116 FILLER_0_23_163
*1117 FILLER_0_23_167
*1118 FILLER_0_23_173
*1119 FILLER_0_23_185
*1120 FILLER_0_23_193
*1121 FILLER_0_23_204
*1122 FILLER_0_23_216
*1123 FILLER_0_23_225
*1124 FILLER_0_23_27
*1125 FILLER_0_23_278
*1126 FILLER_0_23_281
*1127 FILLER_0_23_285
*1128 FILLER_0_23_3
*1129 FILLER_0_23_337
*1130 FILLER_0_23_39
*1131 FILLER_0_23_51
*1132 FILLER_0_23_55
*1133 FILLER_0_23_57
*1134 FILLER_0_23_69
*1135 FILLER_0_23_81
*1136 FILLER_0_23_93
*1137 FILLER_0_24_109
*1138 FILLER_0_24_121
*1139 FILLER_0_24_133
*1140 FILLER_0_24_141
*1141 FILLER_0_24_15
*1142 FILLER_0_24_162
*1143 FILLER_0_24_172
*1144 FILLER_0_24_192
*1145 FILLER_0_24_221
*1146 FILLER_0_24_236
*1147 FILLER_0_24_251
*1148 FILLER_0_24_253
*1149 FILLER_0_24_27
*1150 FILLER_0_24_29
*1151 FILLER_0_24_294
*1152 FILLER_0_24_3
*1153 FILLER_0_24_316
*1154 FILLER_0_24_349
*1155 FILLER_0_24_41
*1156 FILLER_0_24_53
*1157 FILLER_0_24_65
*1158 FILLER_0_24_77
*1159 FILLER_0_24_83
*1160 FILLER_0_24_85
*1161 FILLER_0_24_97
*1162 FILLER_0_25_105
*1163 FILLER_0_25_111
*1164 FILLER_0_25_113
*1165 FILLER_0_25_125
*1166 FILLER_0_25_133
*1167 FILLER_0_25_15
*1168 FILLER_0_25_156
*1169 FILLER_0_25_174
*1170 FILLER_0_25_195
*1171 FILLER_0_25_199
*1172 FILLER_0_25_217
*1173 FILLER_0_25_223
*1174 FILLER_0_25_248
*1175 FILLER_0_25_267
*1176 FILLER_0_25_27
*1177 FILLER_0_25_277
*1178 FILLER_0_25_281
*1179 FILLER_0_25_291
*1180 FILLER_0_25_3
*1181 FILLER_0_25_308
*1182 FILLER_0_25_39
*1183 FILLER_0_25_51
*1184 FILLER_0_25_55
*1185 FILLER_0_25_57
*1186 FILLER_0_25_69
*1187 FILLER_0_25_81
*1188 FILLER_0_25_93
*1189 FILLER_0_26_109
*1190 FILLER_0_26_121
*1191 FILLER_0_26_125
*1192 FILLER_0_26_137
*1193 FILLER_0_26_15
*1194 FILLER_0_26_155
*1195 FILLER_0_26_185
*1196 FILLER_0_26_197
*1197 FILLER_0_26_219
*1198 FILLER_0_26_232
*1199 FILLER_0_26_240
*1200 FILLER_0_26_250
*1201 FILLER_0_26_261
*1202 FILLER_0_26_268
*1203 FILLER_0_26_27
*1204 FILLER_0_26_280
*1205 FILLER_0_26_288
*1206 FILLER_0_26_29
*1207 FILLER_0_26_3
*1208 FILLER_0_26_306
*1209 FILLER_0_26_349
*1210 FILLER_0_26_41
*1211 FILLER_0_26_53
*1212 FILLER_0_26_65
*1213 FILLER_0_26_77
*1214 FILLER_0_26_83
*1215 FILLER_0_26_85
*1216 FILLER_0_26_97
*1217 FILLER_0_27_105
*1218 FILLER_0_27_111
*1219 FILLER_0_27_113
*1220 FILLER_0_27_145
*1221 FILLER_0_27_15
*1222 FILLER_0_27_154
*1223 FILLER_0_27_160
*1224 FILLER_0_27_169
*1225 FILLER_0_27_177
*1226 FILLER_0_27_183
*1227 FILLER_0_27_194
*1228 FILLER_0_27_204
*1229 FILLER_0_27_212
*1230 FILLER_0_27_225
*1231 FILLER_0_27_256
*1232 FILLER_0_27_268
*1233 FILLER_0_27_27
*1234 FILLER_0_27_287
*1235 FILLER_0_27_3
*1236 FILLER_0_27_309
*1237 FILLER_0_27_340
*1238 FILLER_0_27_349
*1239 FILLER_0_27_39
*1240 FILLER_0_27_51
*1241 FILLER_0_27_55
*1242 FILLER_0_27_57
*1243 FILLER_0_27_69
*1244 FILLER_0_27_81
*1245 FILLER_0_27_93
*1246 FILLER_0_28_109
*1247 FILLER_0_28_132
*1248 FILLER_0_28_136
*1249 FILLER_0_28_15
*1250 FILLER_0_28_168
*1251 FILLER_0_28_175
*1252 FILLER_0_28_180
*1253 FILLER_0_28_193
*1254 FILLER_0_28_218
*1255 FILLER_0_28_222
*1256 FILLER_0_28_230
*1257 FILLER_0_28_250
*1258 FILLER_0_28_257
*1259 FILLER_0_28_267
*1260 FILLER_0_28_27
*1261 FILLER_0_28_279
*1262 FILLER_0_28_288
*1263 FILLER_0_28_29
*1264 FILLER_0_28_294
*1265 FILLER_0_28_299
*1266 FILLER_0_28_3
*1267 FILLER_0_28_350
*1268 FILLER_0_28_41
*1269 FILLER_0_28_53
*1270 FILLER_0_28_65
*1271 FILLER_0_28_77
*1272 FILLER_0_28_83
*1273 FILLER_0_28_85
*1274 FILLER_0_28_97
*1275 FILLER_0_29_136
*1276 FILLER_0_29_148
*1277 FILLER_0_29_15
*1278 FILLER_0_29_189
*1279 FILLER_0_29_223
*1280 FILLER_0_29_253
*1281 FILLER_0_29_259
*1282 FILLER_0_29_27
*1283 FILLER_0_29_281
*1284 FILLER_0_29_285
*1285 FILLER_0_29_293
*1286 FILLER_0_29_3
*1287 FILLER_0_29_335
*1288 FILLER_0_29_349
*1289 FILLER_0_29_39
*1290 FILLER_0_29_51
*1291 FILLER_0_29_55
*1292 FILLER_0_29_57
*1293 FILLER_0_29_69
*1294 FILLER_0_29_81
*1295 FILLER_0_29_93
*1296 FILLER_0_2_109
*1297 FILLER_0_2_121
*1298 FILLER_0_2_133
*1299 FILLER_0_2_139
*1300 FILLER_0_2_141
*1301 FILLER_0_2_15
*1302 FILLER_0_2_153
*1303 FILLER_0_2_165
*1304 FILLER_0_2_177
*1305 FILLER_0_2_189
*1306 FILLER_0_2_195
*1307 FILLER_0_2_197
*1308 FILLER_0_2_209
*1309 FILLER_0_2_221
*1310 FILLER_0_2_233
*1311 FILLER_0_2_245
*1312 FILLER_0_2_251
*1313 FILLER_0_2_253
*1314 FILLER_0_2_265
*1315 FILLER_0_2_27
*1316 FILLER_0_2_277
*1317 FILLER_0_2_289
*1318 FILLER_0_2_29
*1319 FILLER_0_2_3
*1320 FILLER_0_2_301
*1321 FILLER_0_2_307
*1322 FILLER_0_2_309
*1323 FILLER_0_2_321
*1324 FILLER_0_2_333
*1325 FILLER_0_2_345
*1326 FILLER_0_2_41
*1327 FILLER_0_2_53
*1328 FILLER_0_2_65
*1329 FILLER_0_2_77
*1330 FILLER_0_2_83
*1331 FILLER_0_2_85
*1332 FILLER_0_2_97
*1333 FILLER_0_30_123
*1334 FILLER_0_30_141
*1335 FILLER_0_30_15
*1336 FILLER_0_30_174
*1337 FILLER_0_30_230
*1338 FILLER_0_30_242
*1339 FILLER_0_30_250
*1340 FILLER_0_30_253
*1341 FILLER_0_30_261
*1342 FILLER_0_30_27
*1343 FILLER_0_30_271
*1344 FILLER_0_30_29
*1345 FILLER_0_30_3
*1346 FILLER_0_30_300
*1347 FILLER_0_30_309
*1348 FILLER_0_30_41
*1349 FILLER_0_30_53
*1350 FILLER_0_30_65
*1351 FILLER_0_30_77
*1352 FILLER_0_30_83
*1353 FILLER_0_30_85
*1354 FILLER_0_30_93
*1355 FILLER_0_31_100
*1356 FILLER_0_31_113
*1357 FILLER_0_31_127
*1358 FILLER_0_31_15
*1359 FILLER_0_31_159
*1360 FILLER_0_31_186
*1361 FILLER_0_31_207
*1362 FILLER_0_31_212
*1363 FILLER_0_31_222
*1364 FILLER_0_31_225
*1365 FILLER_0_31_237
*1366 FILLER_0_31_27
*1367 FILLER_0_31_279
*1368 FILLER_0_31_3
*1369 FILLER_0_31_319
*1370 FILLER_0_31_39
*1371 FILLER_0_31_51
*1372 FILLER_0_31_55
*1373 FILLER_0_31_57
*1374 FILLER_0_31_69
*1375 FILLER_0_31_81
*1376 FILLER_0_31_93
*1377 FILLER_0_32_138
*1378 FILLER_0_32_141
*1379 FILLER_0_32_147
*1380 FILLER_0_32_15
*1381 FILLER_0_32_179
*1382 FILLER_0_32_185
*1383 FILLER_0_32_189
*1384 FILLER_0_32_195
*1385 FILLER_0_32_197
*1386 FILLER_0_32_229
*1387 FILLER_0_32_235
*1388 FILLER_0_32_253
*1389 FILLER_0_32_27
*1390 FILLER_0_32_283
*1391 FILLER_0_32_29
*1392 FILLER_0_32_3
*1393 FILLER_0_32_306
*1394 FILLER_0_32_309
*1395 FILLER_0_32_41
*1396 FILLER_0_32_53
*1397 FILLER_0_32_65
*1398 FILLER_0_33_107
*1399 FILLER_0_33_111
*1400 FILLER_0_33_133
*1401 FILLER_0_33_138
*1402 FILLER_0_33_15
*1403 FILLER_0_33_158
*1404 FILLER_0_33_177
*1405 FILLER_0_33_189
*1406 FILLER_0_33_193
*1407 FILLER_0_33_214
*1408 FILLER_0_33_222
*1409 FILLER_0_33_225
*1410 FILLER_0_33_234
*1411 FILLER_0_33_27
*1412 FILLER_0_33_270
*1413 FILLER_0_33_278
*1414 FILLER_0_33_281
*1415 FILLER_0_33_3
*1416 FILLER_0_33_319
*1417 FILLER_0_33_39
*1418 FILLER_0_33_51
*1419 FILLER_0_33_55
*1420 FILLER_0_33_57
*1421 FILLER_0_33_69
*1422 FILLER_0_34_141
*1423 FILLER_0_34_15
*1424 FILLER_0_34_150
*1425 FILLER_0_34_182
*1426 FILLER_0_34_197
*1427 FILLER_0_34_215
*1428 FILLER_0_34_224
*1429 FILLER_0_34_229
*1430 FILLER_0_34_253
*1431 FILLER_0_34_27
*1432 FILLER_0_34_29
*1433 FILLER_0_34_3
*1434 FILLER_0_34_307
*1435 FILLER_0_34_320
*1436 FILLER_0_34_350
*1437 FILLER_0_34_41
*1438 FILLER_0_34_53
*1439 FILLER_0_34_65
*1440 FILLER_0_34_85
*1441 FILLER_0_35_142
*1442 FILLER_0_35_15
*1443 FILLER_0_35_158
*1444 FILLER_0_35_167
*1445 FILLER_0_35_183
*1446 FILLER_0_35_192
*1447 FILLER_0_35_222
*1448 FILLER_0_35_251
*1449 FILLER_0_35_27
*1450 FILLER_0_35_281
*1451 FILLER_0_35_3
*1452 FILLER_0_35_334
*1453 FILLER_0_35_349
*1454 FILLER_0_35_39
*1455 FILLER_0_35_51
*1456 FILLER_0_35_55
*1457 FILLER_0_35_57
*1458 FILLER_0_35_69
*1459 FILLER_0_35_75
*1460 FILLER_0_35_84
*1461 FILLER_0_36_103
*1462 FILLER_0_36_138
*1463 FILLER_0_36_141
*1464 FILLER_0_36_15
*1465 FILLER_0_36_150
*1466 FILLER_0_36_211
*1467 FILLER_0_36_250
*1468 FILLER_0_36_267
*1469 FILLER_0_36_27
*1470 FILLER_0_36_29
*1471 FILLER_0_36_3
*1472 FILLER_0_36_349
*1473 FILLER_0_36_41
*1474 FILLER_0_36_53
*1475 FILLER_0_36_65
*1476 FILLER_0_36_78
*1477 FILLER_0_36_83
*1478 FILLER_0_37_111
*1479 FILLER_0_37_113
*1480 FILLER_0_37_129
*1481 FILLER_0_37_15
*1482 FILLER_0_37_167
*1483 FILLER_0_37_234
*1484 FILLER_0_37_27
*1485 FILLER_0_37_3
*1486 FILLER_0_37_334
*1487 FILLER_0_37_337
*1488 FILLER_0_37_39
*1489 FILLER_0_37_51
*1490 FILLER_0_37_55
*1491 FILLER_0_37_57
*1492 FILLER_0_37_68
*1493 FILLER_0_37_99
*1494 FILLER_0_38_113
*1495 FILLER_0_38_15
*1496 FILLER_0_38_165
*1497 FILLER_0_38_169
*1498 FILLER_0_38_193
*1499 FILLER_0_38_261
*1500 FILLER_0_38_27
*1501 FILLER_0_38_279
*1502 FILLER_0_38_29
*1503 FILLER_0_38_3
*1504 FILLER_0_38_306
*1505 FILLER_0_38_41
*1506 FILLER_0_38_53
*1507 FILLER_0_38_57
*1508 FILLER_0_38_61
*1509 FILLER_0_38_76
*1510 FILLER_0_38_88
*1511 FILLER_0_3_105
*1512 FILLER_0_3_111
*1513 FILLER_0_3_113
*1514 FILLER_0_3_125
*1515 FILLER_0_3_137
*1516 FILLER_0_3_149
*1517 FILLER_0_3_15
*1518 FILLER_0_3_161
*1519 FILLER_0_3_167
*1520 FILLER_0_3_169
*1521 FILLER_0_3_181
*1522 FILLER_0_3_193
*1523 FILLER_0_3_205
*1524 FILLER_0_3_217
*1525 FILLER_0_3_223
*1526 FILLER_0_3_225
*1527 FILLER_0_3_237
*1528 FILLER_0_3_249
*1529 FILLER_0_3_261
*1530 FILLER_0_3_27
*1531 FILLER_0_3_273
*1532 FILLER_0_3_279
*1533 FILLER_0_3_281
*1534 FILLER_0_3_293
*1535 FILLER_0_3_3
*1536 FILLER_0_3_305
*1537 FILLER_0_3_317
*1538 FILLER_0_3_329
*1539 FILLER_0_3_335
*1540 FILLER_0_3_337
*1541 FILLER_0_3_349
*1542 FILLER_0_3_39
*1543 FILLER_0_3_51
*1544 FILLER_0_3_55
*1545 FILLER_0_3_57
*1546 FILLER_0_3_69
*1547 FILLER_0_3_81
*1548 FILLER_0_3_93
*1549 FILLER_0_4_109
*1550 FILLER_0_4_121
*1551 FILLER_0_4_133
*1552 FILLER_0_4_139
*1553 FILLER_0_4_141
*1554 FILLER_0_4_15
*1555 FILLER_0_4_153
*1556 FILLER_0_4_165
*1557 FILLER_0_4_177
*1558 FILLER_0_4_189
*1559 FILLER_0_4_195
*1560 FILLER_0_4_197
*1561 FILLER_0_4_209
*1562 FILLER_0_4_221
*1563 FILLER_0_4_233
*1564 FILLER_0_4_245
*1565 FILLER_0_4_251
*1566 FILLER_0_4_253
*1567 FILLER_0_4_265
*1568 FILLER_0_4_27
*1569 FILLER_0_4_277
*1570 FILLER_0_4_289
*1571 FILLER_0_4_29
*1572 FILLER_0_4_3
*1573 FILLER_0_4_301
*1574 FILLER_0_4_307
*1575 FILLER_0_4_309
*1576 FILLER_0_4_321
*1577 FILLER_0_4_333
*1578 FILLER_0_4_345
*1579 FILLER_0_4_41
*1580 FILLER_0_4_53
*1581 FILLER_0_4_65
*1582 FILLER_0_4_77
*1583 FILLER_0_4_83
*1584 FILLER_0_4_85
*1585 FILLER_0_4_97
*1586 FILLER_0_5_105
*1587 FILLER_0_5_111
*1588 FILLER_0_5_113
*1589 FILLER_0_5_125
*1590 FILLER_0_5_137
*1591 FILLER_0_5_149
*1592 FILLER_0_5_15
*1593 FILLER_0_5_161
*1594 FILLER_0_5_167
*1595 FILLER_0_5_169
*1596 FILLER_0_5_181
*1597 FILLER_0_5_193
*1598 FILLER_0_5_205
*1599 FILLER_0_5_217
*1600 FILLER_0_5_223
*1601 FILLER_0_5_225
*1602 FILLER_0_5_237
*1603 FILLER_0_5_249
*1604 FILLER_0_5_261
*1605 FILLER_0_5_27
*1606 FILLER_0_5_273
*1607 FILLER_0_5_279
*1608 FILLER_0_5_281
*1609 FILLER_0_5_293
*1610 FILLER_0_5_3
*1611 FILLER_0_5_305
*1612 FILLER_0_5_317
*1613 FILLER_0_5_329
*1614 FILLER_0_5_335
*1615 FILLER_0_5_337
*1616 FILLER_0_5_349
*1617 FILLER_0_5_39
*1618 FILLER_0_5_51
*1619 FILLER_0_5_55
*1620 FILLER_0_5_57
*1621 FILLER_0_5_69
*1622 FILLER_0_5_81
*1623 FILLER_0_5_93
*1624 FILLER_0_6_109
*1625 FILLER_0_6_121
*1626 FILLER_0_6_133
*1627 FILLER_0_6_139
*1628 FILLER_0_6_141
*1629 FILLER_0_6_15
*1630 FILLER_0_6_153
*1631 FILLER_0_6_165
*1632 FILLER_0_6_177
*1633 FILLER_0_6_189
*1634 FILLER_0_6_195
*1635 FILLER_0_6_197
*1636 FILLER_0_6_209
*1637 FILLER_0_6_221
*1638 FILLER_0_6_233
*1639 FILLER_0_6_245
*1640 FILLER_0_6_251
*1641 FILLER_0_6_253
*1642 FILLER_0_6_265
*1643 FILLER_0_6_27
*1644 FILLER_0_6_277
*1645 FILLER_0_6_289
*1646 FILLER_0_6_29
*1647 FILLER_0_6_3
*1648 FILLER_0_6_301
*1649 FILLER_0_6_307
*1650 FILLER_0_6_309
*1651 FILLER_0_6_321
*1652 FILLER_0_6_333
*1653 FILLER_0_6_345
*1654 FILLER_0_6_41
*1655 FILLER_0_6_53
*1656 FILLER_0_6_65
*1657 FILLER_0_6_77
*1658 FILLER_0_6_83
*1659 FILLER_0_6_85
*1660 FILLER_0_6_97
*1661 FILLER_0_7_105
*1662 FILLER_0_7_111
*1663 FILLER_0_7_113
*1664 FILLER_0_7_125
*1665 FILLER_0_7_137
*1666 FILLER_0_7_149
*1667 FILLER_0_7_15
*1668 FILLER_0_7_161
*1669 FILLER_0_7_167
*1670 FILLER_0_7_169
*1671 FILLER_0_7_181