*SPEF "ieee 1481-1999"
*DESIGN "tt_um_gchenfc_seven_segment_gerry"
*DATE "11:11:11 Fri 11 11, 1111"
*VENDOR "OpenRCX"
*PROGRAM "Parallel Extraction"
*VERSION "1.0"
*DESIGN_FLOW "NAME_SCOPE LOCAL" "PIN_CAP NONE"
*DIVIDER /
*DELIMITER :
*BUS_DELIMITER []
*T_UNIT 1 NS
*C_UNIT 1 PF
*R_UNIT 1 OHM
*L_UNIT 1 HENRY

*NAME_MAP
*3 clk
*4 ena
*5 rst_n
*6 ui_in[0]
*7 ui_in[1]
*8 ui_in[2]
*9 ui_in[3]
*10 ui_in[4]
*11 ui_in[5]
*12 ui_in[6]
*13 ui_in[7]
*14 uio_in[0]
*15 uio_in[1]
*16 uio_in[2]
*17 uio_in[3]
*18 uio_in[4]
*19 uio_in[5]
*20 uio_in[6]
*21 uio_in[7]
*22 net14
*23 net15
*24 net16
*25 net17
*26 net18
*27 net19
*28 net20
*29 net21
*30 uio_out[0]
*31 uio_out[1]
*32 uio_out[2]
*33 uio_out[3]
*34 uio_out[4]
*35 uio_out[5]
*36 uio_out[6]
*37 uio_out[7]
*38 uo_out[0]
*39 uo_out[1]
*40 uo_out[2]
*41 uo_out[3]
*42 uo_out[4]
*43 uo_out[5]
*44 uo_out[6]
*45 net13
*46 _000_
*47 _001_
*48 _002_
*49 _003_
*50 _004_
*51 _005_
*52 _006_
*53 _007_
*54 _008_
*55 _009_
*56 _010_
*57 _011_
*58 _012_
*59 _013_
*60 _014_
*61 _015_
*62 _016_
*63 _017_
*64 _018_
*65 _019_
*66 _020_
*67 _021_
*68 _022_
*69 _023_
*70 _024_
*71 _025_
*72 _026_
*73 _027_
*74 _028_
*75 _029_
*76 _030_
*77 _031_
*78 _032_
*79 _033_
*80 _034_
*81 _035_
*82 _036_
*83 _037_
*84 _038_
*85 _039_
*86 _040_
*87 _041_
*88 _042_
*89 _043_
*90 _044_
*91 _045_
*92 _046_
*93 _047_
*94 _048_
*95 _049_
*96 _050_
*97 _051_
*98 _052_
*99 _053_
*100 _054_
*101 _055_
*102 _056_
*103 _057_
*104 _058_
*105 _059_
*106 _060_
*107 _061_
*108 _062_
*109 _063_
*110 _064_
*111 _065_
*112 _066_
*113 _067_
*114 _068_
*115 _069_
*116 _070_
*117 _071_
*118 _072_
*119 _073_
*120 _074_
*121 _075_
*122 _076_
*123 _077_
*124 _078_
*125 _079_
*126 _080_
*127 _081_
*128 _082_
*129 _083_
*130 _084_
*131 _085_
*132 _086_
*133 _087_
*134 _088_
*135 _089_
*136 _090_
*137 _091_
*138 _092_
*139 _093_
*140 _094_
*141 _095_
*142 _096_
*143 _097_
*144 _098_
*145 _099_
*146 _100_
*147 _101_
*148 _102_
*149 _103_
*150 _104_
*151 _105_
*152 _106_
*153 _107_
*154 _108_
*155 _109_
*156 _110_
*157 _111_
*158 _112_
*159 _113_
*160 _114_
*161 _115_
*162 _116_
*163 _117_
*164 _118_
*165 _119_
*166 _120_
*167 _121_
*168 _122_
*169 _123_
*170 _124_
*171 _125_
*172 _126_
*173 _127_
*174 _128_
*175 _129_
*176 _130_
*177 _131_
*178 _132_
*179 _133_
*180 _134_
*181 _135_
*182 _136_
*183 _137_
*184 _138_
*185 _139_
*186 _140_
*187 _141_
*188 _142_
*189 _143_
*190 _144_
*191 _145_
*192 _146_
*193 _147_
*194 _148_
*195 _149_
*196 _150_
*197 _151_
*198 _152_
*199 _153_
*200 _154_
*201 _155_
*202 _156_
*203 _157_
*204 _158_
*205 _159_
*206 _160_
*207 _161_
*208 _162_
*209 _163_
*210 _164_
*211 _165_
*212 _166_
*213 _167_
*214 _168_
*215 _169_
*216 _170_
*217 _171_
*218 _172_
*219 _173_
*220 _174_
*221 _175_
*222 _176_
*223 _177_
*224 _178_
*225 _179_
*226 _180_
*227 _181_
*228 _182_
*229 _183_
*230 _184_
*231 _185_
*232 _186_
*233 _187_
*234 _188_
*235 _189_
*236 _190_
*237 _191_
*238 _192_
*239 _193_
*240 _194_
*241 _195_
*242 _196_
*243 _197_
*244 _198_
*245 _199_
*246 _200_
*247 _201_
*248 _202_
*249 _203_
*250 _204_
*251 _205_
*252 _206_
*253 _207_
*254 _208_
*255 _209_
*256 _210_
*257 _211_
*258 _212_
*259 _213_
*260 _214_
*261 _215_
*262 _216_
*263 _217_
*264 _218_
*265 _219_
*266 _220_
*267 _221_
*268 _222_
*269 _223_
*270 _224_
*271 _225_
*272 _226_
*273 _227_
*274 _228_
*275 _229_
*276 _230_
*277 _231_
*278 _232_
*279 _233_
*280 _234_
*281 _235_
*282 _236_
*283 _237_
*284 _238_
*285 _239_
*286 _240_
*287 _241_
*288 _242_
*289 _243_
*290 _244_
*291 _245_
*292 _246_
*293 _247_
*294 _248_
*295 _249_
*296 _250_
*297 _251_
*298 _252_
*299 _253_
*300 _254_
*301 _255_
*302 _256_
*303 _257_
*304 _258_
*305 _259_
*306 _260_
*307 _261_
*308 _262_
*309 _263_
*310 _264_
*311 _265_
*312 _266_
*313 _267_
*314 _268_
*315 _269_
*316 _270_
*317 _271_
*318 _272_
*319 _273_
*320 _274_
*321 _275_
*322 _276_
*323 _277_
*324 _278_
*325 _279_
*326 _280_
*327 _281_
*328 _282_
*329 _283_
*330 _284_
*331 _285_
*332 _286_
*333 _287_
*334 _288_
*335 _289_
*336 _290_
*337 _291_
*338 _292_
*339 _293_
*340 _294_
*341 _295_
*342 _296_
*343 _297_
*344 _298_
*345 _299_
*346 _300_
*347 _301_
*348 _302_
*349 _303_
*350 _304_
*351 _305_
*352 _306_
*353 _307_
*354 _308_
*355 _309_
*356 _310_
*357 _311_
*358 _312_
*359 _313_
*360 _314_
*361 _315_
*362 _316_
*363 _317_
*364 _318_
*365 _319_
*366 _320_
*367 _321_
*368 _322_
*369 _323_
*370 _324_
*371 _325_
*372 _326_
*373 _327_
*374 _328_
*375 _329_
*376 _330_
*377 _331_
*378 _332_
*379 _333_
*380 _334_
*381 _335_
*382 _336_
*383 _337_
*384 _338_
*385 _339_
*386 _340_
*387 _341_
*388 _342_
*389 _343_
*390 _344_
*391 _345_
*392 _346_
*393 _347_
*394 _348_
*395 _349_
*396 _350_
*397 _351_
*398 _352_
*399 _353_
*400 _354_
*401 _355_
*402 _356_
*403 _357_
*404 _358_
*405 _359_
*406 _360_
*407 _361_
*408 _362_
*409 _363_
*410 _364_
*411 _365_
*412 _366_
*413 _367_
*414 _368_
*415 _369_
*416 _370_
*417 _371_
*418 _372_
*419 _373_
*420 _374_
*421 _375_
*422 _376_
*423 _377_
*424 _378_
*425 _379_
*426 _380_
*427 _381_
*428 _382_
*429 clknet_0_clk
*430 clknet_3_0_0_clk
*431 clknet_3_1_0_clk
*432 clknet_3_2_0_clk
*433 clknet_3_3_0_clk
*434 clknet_3_4_0_clk
*435 clknet_3_5_0_clk
*436 clknet_3_6_0_clk
*437 clknet_3_7_0_clk
*438 led_out
*439 net1
*440 net10
*441 net11
*442 net12
*443 net2
*444 net22
*445 net23
*446 net24
*447 net25
*448 net26
*449 net27
*450 net28
*451 net29
*452 net3
*453 net30
*454 net31
*455 net32
*456 net33
*457 net34
*458 net4
*459 net5
*460 net6
*461 net7
*462 net8
*463 net9
*464 prev_name\[0\]
*465 prev_name\[1\]
*466 prev_name\[2\]
*467 second_counter\[0\]
*468 second_counter\[10\]
*469 second_counter\[11\]
*470 second_counter\[12\]
*471 second_counter\[13\]
*472 second_counter\[14\]
*473 second_counter\[15\]
*474 second_counter\[16\]
*475 second_counter\[17\]
*476 second_counter\[18\]
*477 second_counter\[19\]
*478 second_counter\[1\]
*479 second_counter\[20\]
*480 second_counter\[21\]
*481 second_counter\[22\]
*482 second_counter\[23\]
*483 second_counter\[2\]
*484 second_counter\[3\]
*485 second_counter\[4\]
*486 second_counter\[5\]
*487 second_counter\[6\]
*488 second_counter\[7\]
*489 second_counter\[8\]
*490 second_counter\[9\]
*491 seg7\.counter\[0\]
*492 seg7\.counter\[1\]
*493 seg7\.counter\[2\]
*494 seg7\.counter\[3\]
*495 seg7\.counter\[4\]
*496 FILLER_0_0_109
*497 FILLER_0_0_113
*498 FILLER_0_0_125
*499 FILLER_0_0_137
*500 FILLER_0_0_141
*501 FILLER_0_0_15
*502 FILLER_0_0_153
*503 FILLER_0_0_165
*504 FILLER_0_0_169
*505 FILLER_0_0_181
*506 FILLER_0_0_193
*507 FILLER_0_0_197
*508 FILLER_0_0_209
*509 FILLER_0_0_221
*510 FILLER_0_0_225
*511 FILLER_0_0_237
*512 FILLER_0_0_249
*513 FILLER_0_0_253
*514 FILLER_0_0_265
*515 FILLER_0_0_27
*516 FILLER_0_0_277
*517 FILLER_0_0_281
*518 FILLER_0_0_29
*519 FILLER_0_0_293
*520 FILLER_0_0_3
*521 FILLER_0_0_305
*522 FILLER_0_0_309
*523 FILLER_0_0_321
*524 FILLER_0_0_333
*525 FILLER_0_0_337
*526 FILLER_0_0_349
*527 FILLER_0_0_41
*528 FILLER_0_0_53
*529 FILLER_0_0_57
*530 FILLER_0_0_69
*531 FILLER_0_0_81
*532 FILLER_0_0_85
*533 FILLER_0_0_97
*534 FILLER_0_10_109
*535 FILLER_0_10_121
*536 FILLER_0_10_133
*537 FILLER_0_10_139
*538 FILLER_0_10_141
*539 FILLER_0_10_15
*540 FILLER_0_10_153
*541 FILLER_0_10_165
*542 FILLER_0_10_177
*543 FILLER_0_10_189
*544 FILLER_0_10_195
*545 FILLER_0_10_197
*546 FILLER_0_10_209
*547 FILLER_0_10_221
*548 FILLER_0_10_233
*549 FILLER_0_10_245
*550 FILLER_0_10_251
*551 FILLER_0_10_253
*552 FILLER_0_10_265
*553 FILLER_0_10_27
*554 FILLER_0_10_277
*555 FILLER_0_10_289
*556 FILLER_0_10_29
*557 FILLER_0_10_3
*558 FILLER_0_10_301
*559 FILLER_0_10_307
*560 FILLER_0_10_309
*561 FILLER_0_10_321
*562 FILLER_0_10_333
*563 FILLER_0_10_345
*564 FILLER_0_10_41
*565 FILLER_0_10_53
*566 FILLER_0_10_65
*567 FILLER_0_10_77
*568 FILLER_0_10_83
*569 FILLER_0_10_85
*570 FILLER_0_10_97
*571 FILLER_0_11_105
*572 FILLER_0_11_111
*573 FILLER_0_11_113
*574 FILLER_0_11_125
*575 FILLER_0_11_137
*576 FILLER_0_11_149
*577 FILLER_0_11_15
*578 FILLER_0_11_161
*579 FILLER_0_11_167
*580 FILLER_0_11_169
*581 FILLER_0_11_181
*582 FILLER_0_11_193
*583 FILLER_0_11_205
*584 FILLER_0_11_217
*585 FILLER_0_11_223
*586 FILLER_0_11_225
*587 FILLER_0_11_237
*588 FILLER_0_11_249
*589 FILLER_0_11_261
*590 FILLER_0_11_27
*591 FILLER_0_11_273
*592 FILLER_0_11_279
*593 FILLER_0_11_281
*594 FILLER_0_11_293
*595 FILLER_0_11_3
*596 FILLER_0_11_305
*597 FILLER_0_11_317
*598 FILLER_0_11_329
*599 FILLER_0_11_335
*600 FILLER_0_11_337
*601 FILLER_0_11_349
*602 FILLER_0_11_39
*603 FILLER_0_11_51
*604 FILLER_0_11_55
*605 FILLER_0_11_57
*606 FILLER_0_11_69
*607 FILLER_0_11_81
*608 FILLER_0_11_93
*609 FILLER_0_12_109
*610 FILLER_0_12_121
*611 FILLER_0_12_133
*612 FILLER_0_12_139
*613 FILLER_0_12_141
*614 FILLER_0_12_15
*615 FILLER_0_12_153
*616 FILLER_0_12_165
*617 FILLER_0_12_177
*618 FILLER_0_12_189
*619 FILLER_0_12_195
*620 FILLER_0_12_197
*621 FILLER_0_12_209
*622 FILLER_0_12_221
*623 FILLER_0_12_233
*624 FILLER_0_12_245
*625 FILLER_0_12_251
*626 FILLER_0_12_253
*627 FILLER_0_12_265
*628 FILLER_0_12_27
*629 FILLER_0_12_277
*630 FILLER_0_12_289
*631 FILLER_0_12_29
*632 FILLER_0_12_3
*633 FILLER_0_12_301
*634 FILLER_0_12_307
*635 FILLER_0_12_309
*636 FILLER_0_12_321
*637 FILLER_0_12_333
*638 FILLER_0_12_345
*639 FILLER_0_12_41
*640 FILLER_0_12_53
*641 FILLER_0_12_65
*642 FILLER_0_12_77
*643 FILLER_0_12_83
*644 FILLER_0_12_85
*645 FILLER_0_12_97
*646 FILLER_0_13_105
*647 FILLER_0_13_111
*648 FILLER_0_13_113
*649 FILLER_0_13_125
*650 FILLER_0_13_137
*651 FILLER_0_13_149
*652 FILLER_0_13_15
*653 FILLER_0_13_161
*654 FILLER_0_13_167
*655 FILLER_0_13_169
*656 FILLER_0_13_181
*657 FILLER_0_13_193
*658 FILLER_0_13_205
*659 FILLER_0_13_217
*660 FILLER_0_13_223
*661 FILLER_0_13_225
*662 FILLER_0_13_237
*663 FILLER_0_13_249
*664 FILLER_0_13_261
*665 FILLER_0_13_27
*666 FILLER_0_13_273
*667 FILLER_0_13_279
*668 FILLER_0_13_281
*669 FILLER_0_13_293
*670 FILLER_0_13_3
*671 FILLER_0_13_305
*672 FILLER_0_13_317
*673 FILLER_0_13_329
*674 FILLER_0_13_335
*675 FILLER_0_13_337
*676 FILLER_0_13_349
*677 FILLER_0_13_39
*678 FILLER_0_13_51
*679 FILLER_0_13_55
*680 FILLER_0_13_57
*681 FILLER_0_13_69
*682 FILLER_0_13_81
*683 FILLER_0_13_93
*684 FILLER_0_14_109
*685 FILLER_0_14_121
*686 FILLER_0_14_133
*687 FILLER_0_14_139
*688 FILLER_0_14_141
*689 FILLER_0_14_15
*690 FILLER_0_14_153
*691 FILLER_0_14_165
*692 FILLER_0_14_177
*693 FILLER_0_14_189
*694 FILLER_0_14_195
*695 FILLER_0_14_197
*696 FILLER_0_14_209
*697 FILLER_0_14_221
*698 FILLER_0_14_233
*699 FILLER_0_14_245
*700 FILLER_0_14_251
*701 FILLER_0_14_253
*702 FILLER_0_14_265
*703 FILLER_0_14_27
*704 FILLER_0_14_277
*705 FILLER_0_14_289
*706 FILLER_0_14_29
*707 FILLER_0_14_3
*708 FILLER_0_14_301
*709 FILLER_0_14_307
*710 FILLER_0_14_309
*711 FILLER_0_14_321
*712 FILLER_0_14_333
*713 FILLER_0_14_345
*714 FILLER_0_14_41
*715 FILLER_0_14_53
*716 FILLER_0_14_65
*717 FILLER_0_14_77
*718 FILLER_0_14_83
*719 FILLER_0_14_85
*720 FILLER_0_14_97
*721 FILLER_0_15_105
*722 FILLER_0_15_111
*723 FILLER_0_15_113
*724 FILLER_0_15_125
*725 FILLER_0_15_137
*726 FILLER_0_15_149
*727 FILLER_0_15_15
*728 FILLER_0_15_161
*729 FILLER_0_15_167
*730 FILLER_0_15_169
*731 FILLER_0_15_181
*732 FILLER_0_15_193
*733 FILLER_0_15_205
*734 FILLER_0_15_217
*735 FILLER_0_15_223
*736 FILLER_0_15_225
*737 FILLER_0_15_237
*738 FILLER_0_15_249
*739 FILLER_0_15_261
*740 FILLER_0_15_27
*741 FILLER_0_15_273
*742 FILLER_0_15_279
*743 FILLER_0_15_281
*744 FILLER_0_15_293
*745 FILLER_0_15_3
*746 FILLER_0_15_305
*747 FILLER_0_15_317
*748 FILLER_0_15_329
*749 FILLER_0_15_335
*750 FILLER_0_15_337
*751 FILLER_0_15_349
*752 FILLER_0_15_39
*753 FILLER_0_15_51
*754 FILLER_0_15_55
*755 FILLER_0_15_57
*756 FILLER_0_15_69
*757 FILLER_0_15_81
*758 FILLER_0_15_93
*759 FILLER_0_16_109
*760 FILLER_0_16_121
*761 FILLER_0_16_133
*762 FILLER_0_16_139
*763 FILLER_0_16_141
*764 FILLER_0_16_15
*765 FILLER_0_16_153
*766 FILLER_0_16_165
*767 FILLER_0_16_177
*768 FILLER_0_16_189
*769 FILLER_0_16_195
*770 FILLER_0_16_197
*771 FILLER_0_16_209
*772 FILLER_0_16_221
*773 FILLER_0_16_233
*774 FILLER_0_16_245
*775 FILLER_0_16_251
*776 FILLER_0_16_253
*777 FILLER_0_16_265
*778 FILLER_0_16_27
*779 FILLER_0_16_277
*780 FILLER_0_16_289
*781 FILLER_0_16_29
*782 FILLER_0_16_3
*783 FILLER_0_16_301
*784 FILLER_0_16_307
*785 FILLER_0_16_309
*786 FILLER_0_16_321
*787 FILLER_0_16_333
*788 FILLER_0_16_345
*789 FILLER_0_16_41
*790 FILLER_0_16_53
*791 FILLER_0_16_65
*792 FILLER_0_16_77
*793 FILLER_0_16_83
*794 FILLER_0_16_85
*795 FILLER_0_16_97
*796 FILLER_0_17_105
*797 FILLER_0_17_111
*798 FILLER_0_17_113
*799 FILLER_0_17_125
*800 FILLER_0_17_137
*801 FILLER_0_17_149
*802 FILLER_0_17_15
*803 FILLER_0_17_161
*804 FILLER_0_17_167
*805 FILLER_0_17_169
*806 FILLER_0_17_181
*807 FILLER_0_17_193
*808 FILLER_0_17_205
*809 FILLER_0_17_217
*810 FILLER_0_17_223
*811 FILLER_0_17_225
*812 FILLER_0_17_237
*813 FILLER_0_17_249
*814 FILLER_0_17_261
*815 FILLER_0_17_27
*816 FILLER_0_17_273
*817 FILLER_0_17_279
*818 FILLER_0_17_281
*819 FILLER_0_17_293
*820 FILLER_0_17_3
*821 FILLER_0_17_305
*822 FILLER_0_17_317
*823 FILLER_0_17_329
*824 FILLER_0_17_335
*825 FILLER_0_17_337
*826 FILLER_0_17_349
*827 FILLER_0_17_39
*828 FILLER_0_17_51
*829 FILLER_0_17_55
*830 FILLER_0_17_57
*831 FILLER_0_17_69
*832 FILLER_0_17_81
*833 FILLER_0_17_93
*834 FILLER_0_18_109
*835 FILLER_0_18_121
*836 FILLER_0_18_133
*837 FILLER_0_18_139
*838 FILLER_0_18_141
*839 FILLER_0_18_15
*840 FILLER_0_18_153
*841 FILLER_0_18_165
*842 FILLER_0_18_177
*843 FILLER_0_18_189
*844 FILLER_0_18_195
*845 FILLER_0_18_197
*846 FILLER_0_18_209
*847 FILLER_0_18_221
*848 FILLER_0_18_233
*849 FILLER_0_18_241
*850 FILLER_0_18_245
*851 FILLER_0_18_251
*852 FILLER_0_18_253
*853 FILLER_0_18_27
*854 FILLER_0_18_277
*855 FILLER_0_18_289
*856 FILLER_0_18_29
*857 FILLER_0_18_3
*858 FILLER_0_18_301
*859 FILLER_0_18_307
*860 FILLER_0_18_309
*861 FILLER_0_18_321
*862 FILLER_0_18_333
*863 FILLER_0_18_345
*864 FILLER_0_18_41
*865 FILLER_0_18_53
*866 FILLER_0_18_65
*867 FILLER_0_18_77
*868 FILLER_0_18_83
*869 FILLER_0_18_85
*870 FILLER_0_18_97
*871 FILLER_0_19_105
*872 FILLER_0_19_111
*873 FILLER_0_19_113
*874 FILLER_0_19_125
*875 FILLER_0_19_133
*876 FILLER_0_19_140
*877 FILLER_0_19_15
*878 FILLER_0_19_152
*879 FILLER_0_19_164
*880 FILLER_0_19_169
*881 FILLER_0_19_181
*882 FILLER_0_19_193
*883 FILLER_0_19_205
*884 FILLER_0_19_27
*885 FILLER_0_19_273
*886 FILLER_0_19_279
*887 FILLER_0_19_284
*888 FILLER_0_19_3
*889 FILLER_0_19_301
*890 FILLER_0_19_313
*891 FILLER_0_19_325
*892 FILLER_0_19_333
*893 FILLER_0_19_337
*894 FILLER_0_19_349
*895 FILLER_0_19_39
*896 FILLER_0_19_51
*897 FILLER_0_19_55
*898 FILLER_0_19_57
*899 FILLER_0_19_69
*900 FILLER_0_19_81
*901 FILLER_0_19_93
*902 FILLER_0_1_105
*903 FILLER_0_1_111
*904 FILLER_0_1_113
*905 FILLER_0_1_125
*906 FILLER_0_1_137
*907 FILLER_0_1_149
*908 FILLER_0_1_15
*909 FILLER_0_1_161
*910 FILLER_0_1_167
*911 FILLER_0_1_169
*912 FILLER_0_1_181
*913 FILLER_0_1_193
*914 FILLER_0_1_205
*915 FILLER_0_1_217
*916 FILLER_0_1_223
*917 FILLER_0_1_225
*918 FILLER_0_1_237
*919 FILLER_0_1_249
*920 FILLER_0_1_261
*921 FILLER_0_1_27
*922 FILLER_0_1_273
*923 FILLER_0_1_279
*924 FILLER_0_1_281
*925 FILLER_0_1_293
*926 FILLER_0_1_3
*927 FILLER_0_1_305
*928 FILLER_0_1_317
*929 FILLER_0_1_329
*930 FILLER_0_1_335
*931 FILLER_0_1_337
*932 FILLER_0_1_349
*933 FILLER_0_1_39
*934 FILLER_0_1_51
*935 FILLER_0_1_55
*936 FILLER_0_1_57
*937 FILLER_0_1_69
*938 FILLER_0_1_81
*939 FILLER_0_1_93
*940 FILLER_0_20_109
*941 FILLER_0_20_117
*942 FILLER_0_20_148
*943 FILLER_0_20_15
*944 FILLER_0_20_160
*945 FILLER_0_20_166
*946 FILLER_0_20_189
*947 FILLER_0_20_195
*948 FILLER_0_20_221
*949 FILLER_0_20_246
*950 FILLER_0_20_253
*951 FILLER_0_20_27
*952 FILLER_0_20_273
*953 FILLER_0_20_280
*954 FILLER_0_20_29
*955 FILLER_0_20_292
*956 FILLER_0_20_3
*957 FILLER_0_20_304
*958 FILLER_0_20_309
*959 FILLER_0_20_321
*960 FILLER_0_20_333
*961 FILLER_0_20_345
*962 FILLER_0_20_41
*963 FILLER_0_20_53
*964 FILLER_0_20_65
*965 FILLER_0_20_77
*966 FILLER_0_20_83
*967 FILLER_0_20_85
*968 FILLER_0_20_97
*969 FILLER_0_21_105
*970 FILLER_0_21_111
*971 FILLER_0_21_113
*972 FILLER_0_21_15
*973 FILLER_0_21_156
*974 FILLER_0_21_162
*975 FILLER_0_21_177
*976 FILLER_0_21_193
*977 FILLER_0_21_201
*978 FILLER_0_21_205
*979 FILLER_0_21_222
*980 FILLER_0_21_233
*981 FILLER_0_21_245
*982 FILLER_0_21_251
*983 FILLER_0_21_265
*984 FILLER_0_21_27
*985 FILLER_0_21_277
*986 FILLER_0_21_281
*987 FILLER_0_21_3
*988 FILLER_0_21_308
*989 FILLER_0_21_314
*990 FILLER_0_21_331
*991 FILLER_0_21_335
*992 FILLER_0_21_337
*993 FILLER_0_21_349
*994 FILLER_0_21_39
*995 FILLER_0_21_51
*996 FILLER_0_21_55
*997 FILLER_0_21_57
*998 FILLER_0_21_69
*999 FILLER_0_21_81
*1000 FILLER_0_21_93
*1001 FILLER_0_22_101
*1002 FILLER_0_22_15
*1003 FILLER_0_22_154
*1004 FILLER_0_22_200
*1005 FILLER_0_22_216
*1006 FILLER_0_22_229
*1007 FILLER_0_22_237
*1008 FILLER_0_22_242
*1009 FILLER_0_22_250
*1010 FILLER_0_22_258
*1011 FILLER_0_22_27
*1012 FILLER_0_22_270
*1013 FILLER_0_22_29
*1014 FILLER_0_22_3
*1015 FILLER_0_22_325
*1016 FILLER_0_22_337
*1017 FILLER_0_22_349
*1018 FILLER_0_22_41
*1019 FILLER_0_22_49
*1020 FILLER_0_22_66
*1021 FILLER_0_22_72
*1022 FILLER_0_22_76
*1023 FILLER_0_22_85
*1024 FILLER_0_22_97
*1025 FILLER_0_23_109
*1026 FILLER_0_23_113
*1027 FILLER_0_23_15
*1028 FILLER_0_23_155
*1029 FILLER_0_23_163
*1030 FILLER_0_23_167
*1031 FILLER_0_23_169
*1032 FILLER_0_23_191
*1033 FILLER_0_23_203
*1034 FILLER_0_23_214
*1035 FILLER_0_23_232
*1036 FILLER_0_23_27
*1037 FILLER_0_23_271
*1038 FILLER_0_23_279
*1039 FILLER_0_23_3
*1040 FILLER_0_23_307
*1041 FILLER_0_23_316
*1042 FILLER_0_23_328
*1043 FILLER_0_23_337
*1044 FILLER_0_23_349
*1045 FILLER_0_23_49
*1046 FILLER_0_23_63
*1047 FILLER_0_23_85
*1048 FILLER_0_23_97
*1049 FILLER_0_24_106
*1050 FILLER_0_24_118
*1051 FILLER_0_24_126
*1052 FILLER_0_24_15
*1053 FILLER_0_24_154
*1054 FILLER_0_24_172
*1055 FILLER_0_24_181
*1056 FILLER_0_24_193
*1057 FILLER_0_24_197
*1058 FILLER_0_24_206
*1059 FILLER_0_24_251
*1060 FILLER_0_24_253
*1061 FILLER_0_24_27
*1062 FILLER_0_24_277
*1063 FILLER_0_24_283
*1064 FILLER_0_24_29
*1065 FILLER_0_24_298
*1066 FILLER_0_24_3
*1067 FILLER_0_24_306
*1068 FILLER_0_24_314
*1069 FILLER_0_24_322
*1070 FILLER_0_24_340
*1071 FILLER_0_24_348
*1072 FILLER_0_24_45
*1073 FILLER_0_24_61
*1074 FILLER_0_24_77
*1075 FILLER_0_25_113
*1076 FILLER_0_25_125
*1077 FILLER_0_25_147
*1078 FILLER_0_25_15
*1079 FILLER_0_25_159
*1080 FILLER_0_25_167
*1081 FILLER_0_25_169
*1082 FILLER_0_25_177
*1083 FILLER_0_25_19
*1084 FILLER_0_25_203
*1085 FILLER_0_25_209
*1086 FILLER_0_25_241
*1087 FILLER_0_25_247
*1088 FILLER_0_25_257
*1089 FILLER_0_25_275
*1090 FILLER_0_25_279
*1091 FILLER_0_25_287
*1092 FILLER_0_25_3
*1093 FILLER_0_25_305
*1094 FILLER_0_25_317
*1095 FILLER_0_25_335
*1096 FILLER_0_25_337
*1097 FILLER_0_25_349
*1098 FILLER_0_25_36
*1099 FILLER_0_25_44
*1100 FILLER_0_25_55
*1101 FILLER_0_25_57
*1102 FILLER_0_25_63
*1103 FILLER_0_26_100
*1104 FILLER_0_26_117
*1105 FILLER_0_26_15
*1106 FILLER_0_26_155
*1107 FILLER_0_26_194
*1108 FILLER_0_26_197
*1109 FILLER_0_26_209
*1110 FILLER_0_26_215
*1111 FILLER_0_26_221
*1112 FILLER_0_26_23
*1113 FILLER_0_26_233
*1114 FILLER_0_26_245
*1115 FILLER_0_26_251
*1116 FILLER_0_26_268
*1117 FILLER_0_26_29
*1118 FILLER_0_26_296
*1119 FILLER_0_26_3
*1120 FILLER_0_26_309
*1121 FILLER_0_26_339
*1122 FILLER_0_26_47
*1123 FILLER_0_26_56
*1124 FILLER_0_26_68
*1125 FILLER_0_27_102
*1126 FILLER_0_27_11
*1127 FILLER_0_27_110
*1128 FILLER_0_27_113
*1129 FILLER_0_27_132
*1130 FILLER_0_27_145
*1131 FILLER_0_27_157
*1132 FILLER_0_27_165
*1133 FILLER_0_27_169
*1134 FILLER_0_27_198
*1135 FILLER_0_27_205
*1136 FILLER_0_27_217
*1137 FILLER_0_27_223
*1138 FILLER_0_27_248
*1139 FILLER_0_27_262
*1140 FILLER_0_27_274
*1141 FILLER_0_27_281
*1142 FILLER_0_27_293
*1143 FILLER_0_27_3
*1144 FILLER_0_27_317
*1145 FILLER_0_27_32
*1146 FILLER_0_27_329
*1147 FILLER_0_27_335
*1148 FILLER_0_27_337
*1149 FILLER_0_27_349
*1150 FILLER_0_27_53
*1151 FILLER_0_27_62
*1152 FILLER_0_27_74
*1153 FILLER_0_27_82
*1154 FILLER_0_28_11
*1155 FILLER_0_28_111
*1156 FILLER_0_28_141
*1157 FILLER_0_28_145
*1158 FILLER_0_28_153
*1159 FILLER_0_28_212
*1160 FILLER_0_28_224
*1161 FILLER_0_28_230
*1162 FILLER_0_28_245
*1163 FILLER_0_28_251
*1164 FILLER_0_28_276
*1165 FILLER_0_28_288
*1166 FILLER_0_28_29
*1167 FILLER_0_28_3
*1168 FILLER_0_28_306
*1169 FILLER_0_28_317
*1170 FILLER_0_28_325
*1171 FILLER_0_28_344
*1172 FILLER_0_28_350
*1173 FILLER_0_28_56
*1174 FILLER_0_28_65
*1175 FILLER_0_28_70
*1176 FILLER_0_28_82
*1177 FILLER_0_28_92
*1178 FILLER_0_28_99
*1179 FILLER_0_29_113
*1180 FILLER_0_29_121
*1181 FILLER_0_29_15
*1182 FILLER_0_29_159
*1183 FILLER_0_29_167
*1184 FILLER_0_29_169
*1185 FILLER_0_29_177
*1186 FILLER_0_29_191
*1187 FILLER_0_29_196
*1188 FILLER_0_29_223
*1189 FILLER_0_29_23
*1190 FILLER_0_29_231
*1191 FILLER_0_29_246
*1192 FILLER_0_29_268
*1193 FILLER_0_29_277
*1194 FILLER_0_29_281
*1195 FILLER_0_29_293
*1196 FILLER_0_29_3
*1197 FILLER_0_29_305
*1198 FILLER_0_29_330
*1199 FILLER_0_29_347
*1200 FILLER_0_29_37
*1201 FILLER_0_29_80
*1202 FILLER_0_29_94
*1203 FILLER_0_2_109
*1204 FILLER_0_2_121
*1205 FILLER_0_2_133
*1206 FILLER_0_2_139
*1207 FILLER_0_2_141
*1208 FILLER_0_2_15
*1209 FILLER_0_2_153
*1210 FILLER_0_2_165
*1211 FILLER_0_2_177
*1212 FILLER_0_2_189
*1213 FILLER_0_2_195
*1214 FILLER_0_2_197
*1215 FILLER_0_2_209
*1216 FILLER_0_2_221
*1217 FILLER_0_2_233
*1218 FILLER_0_2_245
*1219 FILLER_0_2_251
*1220 FILLER_0_2_253
*1221 FILLER_0_2_265
*1222 FILLER_0_2_27
*1223 FILLER_0_2_277
*1224 FILLER_0_2_289
*1225 FILLER_0_2_29
*1226 FILLER_0_2_3
*1227 FILLER_0_2_301
*1228 FILLER_0_2_307
*1229 FILLER_0_2_309
*1230 FILLER_0_2_321
*1231 FILLER_0_2_333
*1232 FILLER_0_2_345
*1233 FILLER_0_2_41
*1234 FILLER_0_2_53
*1235 FILLER_0_2_65
*1236 FILLER_0_2_77
*1237 FILLER_0_2_83
*1238 FILLER_0_2_85
*1239 FILLER_0_2_97
*1240 FILLER_0_30_101
*1241 FILLER_0_30_113
*1242 FILLER_0_30_118
*1243 FILLER_0_30_133
*1244 FILLER_0_30_15
*1245 FILLER_0_30_176
*1246 FILLER_0_30_188
*1247 FILLER_0_30_194
*1248 FILLER_0_30_197
*1249 FILLER_0_30_209
*1250 FILLER_0_30_221
*1251 FILLER_0_30_236
*1252 FILLER_0_30_243
*1253 FILLER_0_30_251
*1254 FILLER_0_30_253
*1255 FILLER_0_30_259
*1256 FILLER_0_30_265
*1257 FILLER_0_30_27
*1258 FILLER_0_30_277
*1259 FILLER_0_30_288
*1260 FILLER_0_30_29
*1261 FILLER_0_30_294
*1262 FILLER_0_30_299
*1263 FILLER_0_30_3
*1264 FILLER_0_30_317
*1265 FILLER_0_30_323
*1266 FILLER_0_30_340
*1267 FILLER_0_30_348
*1268 FILLER_0_30_72
*1269 FILLER_0_30_80
*1270 FILLER_0_31_15
*1271 FILLER_0_31_151
*1272 FILLER_0_31_175
*1273 FILLER_0_31_181
*1274 FILLER_0_31_198
*1275 FILLER_0_31_220
*1276 FILLER_0_31_248
*1277 FILLER_0_31_27
*1278 FILLER_0_31_285
*1279 FILLER_0_31_291
*1280 FILLER_0_31_3
*1281 FILLER_0_31_332
*1282 FILLER_0_31_342
*1283 FILLER_0_31_35
*1284 FILLER_0_31_350
*1285 FILLER_0_31_65
*1286 FILLER_0_31_73
*1287 FILLER_0_31_96
*1288 FILLER_0_32_104
*1289 FILLER_0_32_112
*1290 FILLER_0_32_138
*1291 FILLER_0_32_141
*1292 FILLER_0_32_15
*1293 FILLER_0_32_153
*1294 FILLER_0_32_159
*1295 FILLER_0_32_176
*1296 FILLER_0_32_200
*1297 FILLER_0_32_212
*1298 FILLER_0_32_216
*1299 FILLER_0_32_247
*1300 FILLER_0_32_251
*1301 FILLER_0_32_267
*1302 FILLER_0_32_27
*1303 FILLER_0_32_274
*1304 FILLER_0_32_279
*1305 FILLER_0_32_3
*1306 FILLER_0_32_301
*1307 FILLER_0_32_307
*1308 FILLER_0_32_314
*1309 FILLER_0_32_336
*1310 FILLER_0_32_348
*1311 FILLER_0_32_61
*1312 FILLER_0_32_73
*1313 FILLER_0_33_106
*1314 FILLER_0_33_113
*1315 FILLER_0_33_125
*1316 FILLER_0_33_137
*1317 FILLER_0_33_149
*1318 FILLER_0_33_15
*1319 FILLER_0_33_161
*1320 FILLER_0_33_167
*1321 FILLER_0_33_212
*1322 FILLER_0_33_225
*1323 FILLER_0_33_237
*1324 FILLER_0_33_259
*1325 FILLER_0_33_27
*1326 FILLER_0_33_271
*1327 FILLER_0_33_279
*1328 FILLER_0_33_297
*1329 FILLER_0_33_3
*1330 FILLER_0_33_306
*1331 FILLER_0_33_318
*1332 FILLER_0_33_330
*1333 FILLER_0_33_337
*1334 FILLER_0_33_349
*1335 FILLER_0_33_35
*1336 FILLER_0_33_40
*1337 FILLER_0_33_54
*1338 FILLER_0_33_62
*1339 FILLER_0_33_74
*1340 FILLER_0_33_86
*1341 FILLER_0_34_105
*1342 FILLER_0_34_111
*1343 FILLER_0_34_122
*1344 FILLER_0_34_134
*1345 FILLER_0_34_141
*1346 FILLER_0_34_15
*1347 FILLER_0_34_153
*1348 FILLER_0_34_165
*1349 FILLER_0_34_169
*1350 FILLER_0_34_184
*1351 FILLER_0_34_204
*1352 FILLER_0_34_209
*1353 FILLER_0_34_221
*1354 FILLER_0_34_233
*1355 FILLER_0_34_245
*1356 FILLER_0_34_251
*1357 FILLER_0_34_260
*1358 FILLER_0_34_268
*1359 FILLER_0_34_27
*1360 FILLER_0_34_29
*1361 FILLER_0_34_3
*1362 FILLER_0_34_303
*1363 FILLER_0_34_307
*1364 FILLER_0_34_309
*1365 FILLER_0_34_321
*1366 FILLER_0_34_333
*1367 FILLER_0_34_345
*1368 FILLER_0_34_41
*1369 FILLER_0_34_66
*1370 FILLER_0_34_78
*1371 FILLER_0_34_85
*1372 FILLER_0_34_97
*1373 FILLER_0_35_110
*1374 FILLER_0_35_129
*1375 FILLER_0_35_136
*1376 FILLER_0_35_15
*1377 FILLER_0_35_150
*1378 FILLER_0_35_158
*1379 FILLER_0_35_167
*1380 FILLER_0_35_175
*1381 FILLER_0_35_215
*1382 FILLER_0_35_223
*1383 FILLER_0_35_231
*1384 FILLER_0_35_260
*1385 FILLER_0_35_27
*1386 FILLER_0_35_278
*1387 FILLER_0_35_3
*1388 FILLER_0_35_305
*1389 FILLER_0_35_317
*1390 FILLER_0_35_329
*1391 FILLER_0_35_335
*1392 FILLER_0_35_337
*1393 FILLER_0_35_349
*1394 FILLER_0_35_39
*1395 FILLER_0_35_79
*1396 FILLER_0_35_91
*1397 FILLER_0_36_108
*1398 FILLER_0_36_138
*1399 FILLER_0_36_15
*1400 FILLER_0_36_165
*1401 FILLER_0_36_169
*1402 FILLER_0_36_178
*1403 FILLER_0_36_190
*1404 FILLER_0_36_229
*1405 FILLER_0_36_248
*1406 FILLER_0_36_27
*1407 FILLER_0_36_29
*1408 FILLER_0_36_3
*1409 FILLER_0_36_307
*1410 FILLER_0_36_309
*1411 FILLER_0_36_321
*1412 FILLER_0_36_333
*1413 FILLER_0_36_345
*1414 FILLER_0_36_41
*1415 FILLER_0_36_55
*1416 FILLER_0_36_81
*1417 FILLER_0_36_85
*1418 FILLER_0_37_106
*1419 FILLER_0_37_113
*1420 FILLER_0_37_128
*1421 FILLER_0_37_136
*1422 FILLER_0_37_15
*1423 FILLER_0_37_157
*1424 FILLER_0_37_166
*1425 FILLER_0_37_175
*1426 FILLER_0_37_179
*1427 FILLER_0_37_219
*1428 FILLER_0_37_223
*1429 FILLER_0_37_230
*1430 FILLER_0_37_254
*1431 FILLER_0_37_262
*1432 FILLER_0_37_27
*1433 FILLER_0_37_272
*1434 FILLER_0_37_276
*1435 FILLER_0_37_3
*1436 FILLER_0_37_307
*1437 FILLER_0_37_319
*1438 FILLER_0_37_331
*1439 FILLER_0_37_335
*1440 FILLER_0_37_337
*1441 FILLER_0_37_349
*1442 FILLER_0_37_39
*1443 FILLER_0_37_51
*1444 FILLER_0_37_55
*1445 FILLER_0_37_57
*1446 FILLER_0_37_84
*1447 FILLER_0_37_96
*1448 FILLER_0_38_104
*1449 FILLER_0_38_110
*1450 FILLER_0_38_113
*1451 FILLER_0_38_133
*1452 FILLER_0_38_139
*1453 FILLER_0_38_141
*1454 FILLER_0_38_15
*1455 FILLER_0_38_153
*1456 FILLER_0_38_164
*1457 FILLER_0_38_175
*1458 FILLER_0_38_187
*1459 FILLER_0_38_195
*1460 FILLER_0_38_197
*1461 FILLER_0_38_201
*1462 FILLER_0_38_208
*1463 FILLER_0_38_220
*1464 FILLER_0_38_225
*1465 FILLER_0_38_237
*1466 FILLER_0_38_246
*1467 FILLER_0_38_253
*1468 FILLER_0_38_261
*1469 FILLER_0_38_267
*1470 FILLER_0_38_27
*1471 FILLER_0_38_273
*1472 FILLER_0_38_278
*1473 FILLER_0_38_281
*1474 FILLER_0_38_29
*1475 FILLER_0_38_3
*1476 FILLER_0_38_307
*1477 FILLER_0_38_322
*1478 FILLER_0_38_334
*1479 FILLER_0_38_337
*1480 FILLER_0_38_349
*1481 FILLER_0_38_41
*1482 FILLER_0_38_53
*1483 FILLER_0_38_79
*1484 FILLER_0_38_83
*1485 FILLER_0_38_88
*1486 FILLER_0_38_92
*1487 FILLER_0_38_98
*1488 FILLER_0_3_105
*1489 FILLER_0_3_111
*1490 FILLER_0_3_113
*1491 FILLER_0_3_125
*1492 FILLER_0_3_137
*1493 FILLER_0_3_149
*1494 FILLER_0_3_15
*1495 FILLER_0_3_161
*1496 FILLER_0_3_167
*1497 FILLER_0_3_169
*1498 FILLER_0_3_181
*1499 FILLER_0_3_193
*1500 FILLER_0_3_205
*1501 FILLER_0_3_217
*1502 FILLER_0_3_223
*1503 FILLER_0_3_225
*1504 FILLER_0_3_237
*1505 FILLER_0_3_249
*1506 FILLER_0_3_261
*1507 FILLER_0_3_27
*1508 FILLER_0_3_273
*1509 FILLER_0_3_279
*1510 FILLER_0_3_281
*1511 FILLER_0_3_293
*1512 FILLER_0_3_3
*1513 FILLER_0_3_305
*1514 FILLER_0_3_317
*1515 FILLER_0_3_329
*1516 FILLER_0_3_335
*1517 FILLER_0_3_337
*1518 FILLER_0_3_349
*1519 FILLER_0_3_39
*1520 FILLER_0_3_51
*1521 FILLER_0_3_55
*1522 FILLER_0_3_57
*1523 FILLER_0_3_69
*1524 FILLER_0_3_81
*1525 FILLER_0_3_93
*1526 FILLER_0_4_109
*1527 FILLER_0_4_121
*1528 FILLER_0_4_133
*1529 FILLER_0_4_139
*1530 FILLER_0_4_141
*1531 FILLER_0_4_15
*1532 FILLER_0_4_153
*1533 FILLER_0_4_165
*1534 FILLER_0_4_177
*1535 FILLER_0_4_189
*1536 FILLER_0_4_195
*1537 FILLER_0_4_197
*1538 FILLER_0_4_209
*1539 FILLER_0_4_221
*1540 FILLER_0_4_233
*1541 FILLER_0_4_245
*1542 FILLER_0_4_251
*1543 FILLER_0_4_253
*1544 FILLER_0_4_265
*1545 FILLER_0_4_27
*1546 FILLER_0_4_277
*1547 FILLER_0_4_289
*1548 FILLER_0_4_29
*1549 FILLER_0_4_3
*1550 FILLER_0_4_301
*1551 FILLER_0_4_307
*1552 FILLER_0_4_309
*1553 FILLER_0_4_321
*1554 FILLER_0_4_333
*1555 FILLER_0_4_345
*1556 FILLER_0_4_41
*1557 FILLER_0_4_53
*1558 FILLER_0_4_65
*1559 FILLER_0_4_77
*1560 FILLER_0_4_83
*1561 FILLER_0_4_85
*1562 FILLER_0_4_97
*1563 FILLER_0_5_105
*1564 FILLER_0_5_111
*1565 FILLER_0_5_113
*1566 FILLER_0_5_125
*1567 FILLER_0_5_137
*1568 FILLER_0_5_149
*1569 FILLER_0_5_15
*1570 FILLER_0_5_161
*1571 FILLER_0_5_167
*1572 FILLER_0_5_169
*1573 FILLER_0_5_181
*1574 FILLER_0_5_193
*1575 FILLER_0_5_205
*1576 FILLER_0_5_217
*1577 FILLER_0_5_223
*1578 FILLER_0_5_225
*1579 FILLER_0_5_237
*1580 FILLER_0_5_249
*1581 FILLER_0_5_261
*1582 FILLER_0_5_27
*1583 FILLER_0_5_273
*1584 FILLER_0_5_279
*1585 FILLER_0_5_281
*1586 FILLER_0_5_293
*1587 FILLER_0_5_3
*1588 FILLER_0_5_305
*1589 FILLER_0_5_317
*1590 FILLER_0_5_329
*1591 FILLER_0_5_335
*1592 FILLER_0_5_337
*1593 FILLER_0_5_349
*1594 FILLER_0_5_39
*1595 FILLER_0_5_51
*1596 FILLER_0_5_55
*1597 FILLER_0_5_57
*1598 FILLER_0_5_69
*1599 FILLER_0_5_81
*1600 FILLER_0_5_93
*1601 FILLER_0_6_109
*1602 FILLER_0_6_121
*1603 FILLER_0_6_133
*1604 FILLER_0_6_139
*1605 FILLER_0_6_141
*1606 FILLER_0_6_15
*1607 FILLER_0_6_153
*1608 FILLER_0_6_165
*1609 FILLER_0_6_177
*1610 FILLER_0_6_189
*1611 FILLER_0_6_195
*1612 FILLER_0_6_197
*1613 FILLER_0_6_209
*1614 FILLER_0_6_221
*1615 FILLER_0_6_233
*1616 FILLER_0_6_245
*1617 FILLER_0_6_251
*1618 FILLER_0_6_253
*1619 FILLER_0_6_265
*1620 FILLER_0_6_27
*1621 FILLER_0_6_277
*1622 FILLER_0_6_289
*1623 FILLER_0_6_29