*SPEF "ieee 1481-1999"
*DESIGN "tt_um_gharenthi_top"
*DATE "11:11:11 Fri 11 11, 1111"
*VENDOR "OpenRCX"
*PROGRAM "Parallel Extraction"
*VERSION "1.0"
*DESIGN_FLOW "NAME_SCOPE LOCAL" "PIN_CAP NONE"
*DIVIDER /
*DELIMITER :
*BUS_DELIMITER []
*T_UNIT 1 NS
*C_UNIT 1 PF
*R_UNIT 1 OHM
*L_UNIT 1 HENRY

*NAME_MAP
*3 clk
*4 ena
*5 rst_n
*6 ui_in[0]
*7 ui_in[1]
*8 ui_in[2]
*9 ui_in[3]
*10 ui_in[4]
*11 ui_in[5]
*12 ui_in[6]
*13 ui_in[7]
*14 uio_in[0]
*15 uio_in[1]
*16 uio_in[2]
*17 uio_in[3]
*18 uio_in[4]
*19 uio_in[5]
*20 uio_in[6]
*21 uio_in[7]
*22 net8
*23 net9
*24 net10
*25 net11
*26 net12
*27 net13
*28 net14
*29 net15
*30 net16
*31 net17
*32 net18
*33 net19
*34 net20
*35 net21
*36 net22
*37 net23
*38 net24
*39 net25
*40 net26
*41 net27
*42 net28
*43 net29
*44 net30
*45 uo_out[7]
*46 _0000_
*47 _0001_
*48 _0002_
*49 _0003_
*50 _0004_
*51 _0005_
*52 _0006_
*53 _0007_
*54 _0008_
*55 _0009_
*56 _0010_
*57 _0011_
*58 _0012_
*59 _0013_
*60 _0014_
*61 _0015_
*62 _0016_
*63 _0017_
*64 _0018_
*65 _0019_
*66 _0020_
*67 _0021_
*68 _0022_
*69 _0023_
*70 _0024_
*71 _0025_
*72 _0026_
*73 _0027_
*74 _0028_
*75 _0029_
*76 _0030_
*77 _0031_
*78 _0032_
*79 _0033_
*80 _0034_
*81 _0035_
*82 _0036_
*83 _0037_
*84 _0038_
*85 _0039_
*86 _0040_
*87 _0041_
*88 _0042_
*89 _0043_
*90 _0044_
*91 _0045_
*92 _0046_
*93 _0047_
*94 _0048_
*95 _0049_
*96 _0050_
*97 _0051_
*98 _0052_
*99 _0053_
*100 _0054_
*101 _0055_
*102 _0056_
*103 _0057_
*104 _0058_
*105 _0059_
*106 _0060_
*107 _0061_
*108 _0062_
*109 _0063_
*110 _0064_
*111 _0065_
*112 _0066_
*113 _0067_
*114 _0068_
*115 _0069_
*116 _0070_
*117 _0071_
*118 _0072_
*119 _0073_
*120 _0074_
*121 _0075_
*122 _0076_
*123 _0077_
*124 _0078_
*125 _0079_
*126 _0080_
*127 _0081_
*128 _0082_
*129 _0083_
*130 _0084_
*131 _0085_
*132 _0086_
*133 _0087_
*134 _0088_
*135 _0089_
*136 _0090_
*137 _0091_
*138 _0092_
*139 _0093_
*140 _0094_
*141 _0095_
*142 _0096_
*143 _0097_
*144 _0098_
*145 _0099_
*146 _0100_
*147 _0101_
*148 _0102_
*149 _0103_
*150 _0104_
*151 _0105_
*152 _0106_
*153 _0107_
*154 _0108_
*155 _0109_
*156 _0110_
*157 _0111_
*158 _0112_
*159 _0113_
*160 _0114_
*161 _0115_
*162 _0116_
*163 _0117_
*164 _0118_
*165 _0119_
*166 _0120_
*167 _0121_
*168 _0122_
*169 _0123_
*170 _0124_
*171 _0125_
*172 _0126_
*173 _0127_
*174 _0128_
*175 _0129_
*176 _0130_
*177 _0131_
*178 _0132_
*179 _0133_
*180 _0134_
*181 _0135_
*182 _0136_
*183 _0137_
*184 _0138_
*185 _0139_
*186 _0140_
*187 _0141_
*188 _0142_
*189 _0143_
*190 _0144_
*191 _0145_
*192 _0146_
*193 _0147_
*194 _0148_
*195 _0149_
*196 _0150_
*197 _0151_
*198 _0152_
*199 _0153_
*200 _0154_
*201 _0155_
*202 _0156_
*203 _0157_
*204 _0158_
*205 _0159_
*206 _0160_
*207 _0161_
*208 _0162_
*209 _0163_
*210 _0164_
*211 _0165_
*212 _0166_
*213 _0167_
*214 _0168_
*215 _0169_
*216 _0170_
*217 _0171_
*218 _0172_
*219 _0173_
*220 _0174_
*221 _0175_
*222 _0176_
*223 _0177_
*224 _0178_
*225 _0179_
*226 _0180_
*227 _0181_
*228 _0182_
*229 _0183_
*230 _0184_
*231 _0185_
*232 _0186_
*233 _0187_
*234 _0188_
*235 _0189_
*236 _0190_
*237 _0191_
*238 _0192_
*239 _0193_
*240 _0194_
*241 _0195_
*242 _0196_
*243 _0197_
*244 _0198_
*245 _0199_
*246 _0200_
*247 _0201_
*248 _0202_
*249 _0203_
*250 _0204_
*251 _0205_
*252 _0206_
*253 _0207_
*254 _0208_
*255 _0209_
*256 _0210_
*257 _0211_
*258 _0212_
*259 _0213_
*260 _0214_
*261 _0215_
*262 _0216_
*263 _0217_
*264 _0218_
*265 _0219_
*266 _0220_
*267 _0221_
*268 _0222_
*269 _0223_
*270 _0224_
*271 _0225_
*272 _0226_
*273 _0227_
*274 _0228_
*275 _0229_
*276 _0230_
*277 _0231_
*278 _0232_
*279 _0233_
*280 _0234_
*281 _0235_
*282 _0236_
*283 _0237_
*284 _0238_
*285 _0239_
*286 _0240_
*287 _0241_
*288 _0242_
*289 _0243_
*290 _0244_
*291 _0245_
*292 _0246_
*293 _0247_
*294 _0248_
*295 _0249_
*296 _0250_
*297 _0251_
*298 _0252_
*299 _0253_
*300 _0254_
*301 _0255_
*302 _0256_
*303 _0257_
*304 _0258_
*305 _0259_
*306 _0260_
*307 _0261_
*308 _0262_
*309 _0263_
*310 _0264_
*311 _0265_
*312 _0266_
*313 _0267_
*314 _0268_
*315 _0269_
*316 _0270_
*317 _0271_
*318 _0272_
*319 _0273_
*320 _0274_
*321 _0275_
*322 _0276_
*323 _0277_
*324 _0278_
*325 _0279_
*326 _0280_
*327 _0281_
*328 _0282_
*329 _0283_
*330 _0284_
*331 _0285_
*332 _0286_
*333 _0287_
*334 _0288_
*335 _0289_
*336 _0290_
*337 _0291_
*338 _0292_
*339 _0293_
*340 _0294_
*341 _0295_
*342 _0296_
*343 _0297_
*344 _0298_
*345 _0299_
*346 _0300_
*347 _0301_
*348 _0302_
*349 _0303_
*350 _0304_
*351 _0305_
*352 _0306_
*353 _0307_
*354 _0308_
*355 _0309_
*356 _0310_
*357 _0311_
*358 _0312_
*359 _0313_
*360 _0314_
*361 _0315_
*362 _0316_
*363 _0317_
*364 _0318_
*365 _0319_
*366 _0320_
*367 _0321_
*368 _0322_
*369 _0323_
*370 _0324_
*371 _0325_
*372 _0326_
*373 _0327_
*374 _0328_
*375 _0329_
*376 _0330_
*377 _0331_
*378 _0332_
*379 _0333_
*380 _0334_
*381 _0335_
*382 _0336_
*383 _0337_
*384 _0338_
*385 _0339_
*386 _0340_
*387 _0341_
*388 _0342_
*389 _0343_
*390 _0344_
*391 _0345_
*392 _0346_
*393 _0347_
*394 _0348_
*395 _0349_
*396 _0350_
*397 _0351_
*398 _0352_
*399 _0353_
*400 _0354_
*401 _0355_
*402 _0356_
*403 _0357_
*404 _0358_
*405 _0359_
*406 _0360_
*407 _0361_
*408 _0362_
*409 _0363_
*410 _0364_
*411 _0365_
*412 _0366_
*413 _0367_
*414 _0368_
*415 _0369_
*416 _0370_
*417 _0371_
*418 _0372_
*419 _0373_
*420 _0374_
*421 _0375_
*422 _0376_
*423 _0377_
*424 _0378_
*425 _0379_
*426 _0380_
*427 _0381_
*428 _0382_
*429 _0383_
*430 _0384_
*431 _0385_
*432 _0386_
*433 _0387_
*434 _0388_
*435 _0389_
*436 _0390_
*437 _0391_
*438 _0392_
*439 _0393_
*440 _0394_
*441 _0395_
*442 _0396_
*443 _0397_
*444 _0398_
*445 _0399_
*446 _0400_
*447 _0401_
*448 _0402_
*449 _0403_
*450 _0404_
*451 _0405_
*452 _0406_
*453 _0407_
*454 _0408_
*455 _0409_
*456 _0410_
*457 _0411_
*458 _0412_
*459 _0413_
*460 _0414_
*461 _0415_
*462 _0416_
*463 _0417_
*464 _0418_
*465 _0419_
*466 _0420_
*467 _0421_
*468 _0422_
*469 _0423_
*470 _0424_
*471 _0425_
*472 _0426_
*473 _0427_
*474 _0428_
*475 _0429_
*476 _0430_
*477 _0431_
*478 _0432_
*479 _0433_
*480 _0434_
*481 _0435_
*482 _0436_
*483 _0437_
*484 _0438_
*485 _0439_
*486 _0440_
*487 _0441_
*488 _0442_
*489 _0443_
*490 _0444_
*491 _0445_
*492 _0446_
*493 _0447_
*494 _0448_
*495 _0449_
*496 _0450_
*497 _0451_
*498 _0452_
*499 _0453_
*500 _0454_
*501 _0455_
*502 _0456_
*503 _0457_
*504 _0458_
*505 _0459_
*506 _0460_
*507 _0461_
*508 _0462_
*509 _0463_
*510 _0464_
*511 _0465_
*512 _0466_
*513 _0467_
*514 _0468_
*515 _0469_
*516 _0470_
*517 _0471_
*518 _0472_
*519 _0473_
*520 _0474_
*521 _0475_
*522 _0476_
*523 _0477_
*524 _0478_
*525 _0479_
*526 _0480_
*527 _0481_
*528 _0482_
*529 _0483_
*530 _0484_
*531 _0485_
*532 _0486_
*533 _0487_
*534 _0488_
*535 _0489_
*536 _0490_
*537 _0491_
*538 _0492_
*539 _0493_
*540 _0494_
*541 _0495_
*542 _0496_
*543 _0497_
*544 _0498_
*545 _0499_
*546 _0500_
*547 _0501_
*548 _0502_
*549 _0503_
*550 _0504_
*551 _0505_
*552 _0506_
*553 _0507_
*554 _0508_
*555 _0509_
*556 _0510_
*557 _0511_
*558 _0512_
*559 _0513_
*560 _0514_
*561 _0515_
*562 _0516_
*563 _0517_
*564 _0518_
*565 _0519_
*566 _0520_
*567 _0521_
*568 _0522_
*569 _0523_
*570 _0524_
*571 _0525_
*572 _0526_
*573 _0527_
*574 _0528_
*575 _0529_
*576 _0530_
*577 _0531_
*578 _0532_
*579 _0533_
*580 _0534_
*581 _0535_
*582 _0536_
*583 _0537_
*584 _0538_
*585 _0539_
*586 _0540_
*587 _0541_
*588 _0542_
*589 _0543_
*590 _0544_
*591 _0545_
*592 _0546_
*593 _0547_
*594 _0548_
*595 clknet_0_clk
*596 clknet_0_n1\.s0\.r_weight\.clk
*597 clknet_2_0__leaf_clk
*598 clknet_2_0__leaf_n1\.s0\.r_weight\.clk
*599 clknet_2_1__leaf_clk
*600 clknet_2_1__leaf_n1\.s0\.r_weight\.clk
*601 clknet_2_2__leaf_clk
*602 clknet_2_2__leaf_n1\.s0\.r_weight\.clk
*603 clknet_2_3__leaf_clk
*604 clknet_2_3__leaf_n1\.s0\.r_weight\.clk
*605 n1\.a3\.a7\.carry_out
*606 n1\.leak\.magic\.a0\.in_a
*607 n1\.leak\.magic\.a1\.in_a
*608 n1\.leak\.magic\.a2\.in_a
*609 n1\.leak\.magic\.a3\.in_a
*610 n1\.leak\.magic\.a4\.in_a
*611 n1\.leak\.magic\.a5\.in_a
*612 n1\.leak\.magic\.a6\.in_a
*613 n1\.leak\.magic\.a7\.in_a
*614 n1\.s0\.a_delta\.a0\.carry_out
*615 n1\.s0\.a_delta\.a1\.in_a
*616 n1\.s0\.a_delta\.a2\.in_a
*617 n1\.s0\.a_delta\.a3\.in_a
*618 n1\.s0\.a_delta\.a4\.in_a
*619 n1\.s0\.a_delta\.a5\.in_a
*620 n1\.s0\.a_delta\.a6\.in_a
*621 n1\.s0\.a_delta\.a7\.in_a
*622 n1\.s0\.a_wnew\.a0\.in_a
*623 n1\.s0\.a_wnew\.a1\.in_a
*624 n1\.s0\.a_wnew\.a2\.in_a
*625 n1\.s0\.a_wnew\.a3\.in_a
*626 n1\.s0\.a_wnew\.a4\.in_a
*627 n1\.s0\.a_wnew\.a5\.in_a
*628 n1\.s0\.a_wnew\.a6\.in_a
*629 n1\.s0\.a_wnew\.a7\.in_a
*630 n1\.s0\.r_weight\.clk
*631 n1\.s1\.a_delta\.a0\.carry_out
*632 n1\.s1\.a_delta\.a1\.in_a
*633 n1\.s1\.a_delta\.a2\.in_a
*634 n1\.s1\.a_delta\.a3\.in_a
*635 n1\.s1\.a_delta\.a4\.in_a
*636 n1\.s1\.a_delta\.a5\.in_a
*637 n1\.s1\.a_delta\.a6\.in_a
*638 n1\.s1\.a_delta\.a7\.in_a
*639 n1\.s1\.a_wnew\.a0\.in_a
*640 n1\.s1\.a_wnew\.a1\.in_a
*641 n1\.s1\.a_wnew\.a2\.in_a
*642 n1\.s1\.a_wnew\.a3\.in_a
*643 n1\.s1\.a_wnew\.a4\.in_a
*644 n1\.s1\.a_wnew\.a5\.in_a
*645 n1\.s1\.a_wnew\.a6\.in_a
*646 n1\.s1\.a_wnew\.a7\.in_a
*647 n1\.s2\.a_delta\.a0\.carry_out
*648 n1\.s2\.a_delta\.a1\.in_a
*649 n1\.s2\.a_delta\.a2\.in_a
*650 n1\.s2\.a_delta\.a3\.in_a
*651 n1\.s2\.a_delta\.a4\.in_a
*652 n1\.s2\.a_delta\.a5\.in_a
*653 n1\.s2\.a_delta\.a6\.in_a
*654 n1\.s2\.a_delta\.a7\.in_a
*655 n1\.s2\.a_wnew\.a0\.in_a
*656 n1\.s2\.a_wnew\.a1\.in_a
*657 n1\.s2\.a_wnew\.a2\.in_a
*658 n1\.s2\.a_wnew\.a3\.in_a
*659 n1\.s2\.a_wnew\.a4\.in_a
*660 n1\.s2\.a_wnew\.a5\.in_a
*661 n1\.s2\.a_wnew\.a6\.in_a
*662 n1\.s2\.a_wnew\.a7\.in_a
*663 n1\.s3\.a_delta\.a0\.carry_out
*664 n1\.s3\.a_delta\.a1\.in_a
*665 n1\.s3\.a_delta\.a2\.in_a
*666 n1\.s3\.a_delta\.a3\.in_a
*667 n1\.s3\.a_delta\.a4\.in_a
*668 n1\.s3\.a_delta\.a5\.in_a
*669 n1\.s3\.a_delta\.a6\.in_a
*670 n1\.s3\.a_delta\.a7\.in_a
*671 n1\.s3\.a_wnew\.a0\.in_a
*672 n1\.s3\.a_wnew\.a1\.in_a
*673 n1\.s3\.a_wnew\.a2\.in_a
*674 n1\.s3\.a_wnew\.a3\.in_a
*675 n1\.s3\.a_wnew\.a4\.in_a
*676 n1\.s3\.a_wnew\.a5\.in_a
*677 n1\.s3\.a_wnew\.a6\.in_a
*678 n1\.s3\.a_wnew\.a7\.in_a
*679 net1
*680 net100
*681 net101
*682 net102
*683 net103
*684 net104
*685 net105
*686 net106
*687 net107
*688 net108
*689 net109
*690 net110
*691 net111
*692 net112
*693 net2
*694 net3
*695 net31
*696 net32
*697 net33
*698 net34
*699 net35
*700 net36
*701 net37
*702 net38
*703 net39
*704 net4
*705 net40
*706 net41
*707 net42
*708 net43
*709 net44
*710 net45
*711 net46
*712 net47
*713 net48
*714 net49
*715 net5
*716 net50
*717 net51
*718 net52
*719 net53
*720 net54
*721 net55
*722 net56
*723 net57
*724 net58
*725 net59
*726 net6
*727 net60
*728 net61
*729 net62
*730 net63
*731 net64
*732 net65
*733 net66
*734 net67
*735 net68
*736 net69
*737 net7
*738 net70
*739 net71
*740 net72
*741 net73
*742 net74
*743 net75
*744 net76
*745 net77
*746 net78
*747 net79
*748 net80
*749 net81
*750 net82
*751 net83
*752 net84
*753 net85
*754 net86
*755 net87
*756 net88
*757 net89
*758 net90
*759 net91
*760 net92
*761 net93
*762 net94
*763 net95
*764 net96
*765 net97
*766 net98
*767 net99
*768 FILLER_0_0_109
*769 FILLER_0_0_113
*770 FILLER_0_0_125
*771 FILLER_0_0_137
*772 FILLER_0_0_141
*773 FILLER_0_0_15
*774 FILLER_0_0_153
*775 FILLER_0_0_165
*776 FILLER_0_0_169
*777 FILLER_0_0_181
*778 FILLER_0_0_193
*779 FILLER_0_0_197
*780 FILLER_0_0_209
*781 FILLER_0_0_221
*782 FILLER_0_0_225
*783 FILLER_0_0_237
*784 FILLER_0_0_249
*785 FILLER_0_0_253
*786 FILLER_0_0_265
*787 FILLER_0_0_27
*788 FILLER_0_0_277
*789 FILLER_0_0_281
*790 FILLER_0_0_29
*791 FILLER_0_0_293
*792 FILLER_0_0_3
*793 FILLER_0_0_305
*794 FILLER_0_0_309
*795 FILLER_0_0_321
*796 FILLER_0_0_333
*797 FILLER_0_0_337
*798 FILLER_0_0_349
*799 FILLER_0_0_41
*800 FILLER_0_0_53
*801 FILLER_0_0_57
*802 FILLER_0_0_69
*803 FILLER_0_0_81
*804 FILLER_0_0_85
*805 FILLER_0_0_97
*806 FILLER_0_10_109
*807 FILLER_0_10_121
*808 FILLER_0_10_133
*809 FILLER_0_10_139
*810 FILLER_0_10_141
*811 FILLER_0_10_15
*812 FILLER_0_10_153
*813 FILLER_0_10_165
*814 FILLER_0_10_177
*815 FILLER_0_10_189
*816 FILLER_0_10_195
*817 FILLER_0_10_197
*818 FILLER_0_10_209
*819 FILLER_0_10_221
*820 FILLER_0_10_233
*821 FILLER_0_10_245
*822 FILLER_0_10_251
*823 FILLER_0_10_253
*824 FILLER_0_10_265
*825 FILLER_0_10_27
*826 FILLER_0_10_277
*827 FILLER_0_10_289
*828 FILLER_0_10_29
*829 FILLER_0_10_3
*830 FILLER_0_10_301
*831 FILLER_0_10_307
*832 FILLER_0_10_309
*833 FILLER_0_10_321
*834 FILLER_0_10_333
*835 FILLER_0_10_345
*836 FILLER_0_10_41
*837 FILLER_0_10_53
*838 FILLER_0_10_65
*839 FILLER_0_10_77
*840 FILLER_0_10_83
*841 FILLER_0_10_85
*842 FILLER_0_10_97
*843 FILLER_0_11_105
*844 FILLER_0_11_111
*845 FILLER_0_11_113
*846 FILLER_0_11_125
*847 FILLER_0_11_147
*848 FILLER_0_11_15
*849 FILLER_0_11_167
*850 FILLER_0_11_169
*851 FILLER_0_11_194
*852 FILLER_0_11_198
*853 FILLER_0_11_214
*854 FILLER_0_11_222
*855 FILLER_0_11_225
*856 FILLER_0_11_229
*857 FILLER_0_11_249
*858 FILLER_0_11_261
*859 FILLER_0_11_27
*860 FILLER_0_11_273
*861 FILLER_0_11_279
*862 FILLER_0_11_281
*863 FILLER_0_11_293
*864 FILLER_0_11_3
*865 FILLER_0_11_305
*866 FILLER_0_11_317
*867 FILLER_0_11_329
*868 FILLER_0_11_335
*869 FILLER_0_11_337
*870 FILLER_0_11_349
*871 FILLER_0_11_39
*872 FILLER_0_11_51
*873 FILLER_0_11_55
*874 FILLER_0_11_57
*875 FILLER_0_11_69
*876 FILLER_0_11_81
*877 FILLER_0_11_93
*878 FILLER_0_12_109
*879 FILLER_0_12_121
*880 FILLER_0_12_133
*881 FILLER_0_12_139
*882 FILLER_0_12_141
*883 FILLER_0_12_15
*884 FILLER_0_12_153
*885 FILLER_0_12_163
*886 FILLER_0_12_180
*887 FILLER_0_12_192
*888 FILLER_0_12_207
*889 FILLER_0_12_213
*890 FILLER_0_12_230
*891 FILLER_0_12_237
*892 FILLER_0_12_241
*893 FILLER_0_12_246
*894 FILLER_0_12_253
*895 FILLER_0_12_265
*896 FILLER_0_12_27
*897 FILLER_0_12_277
*898 FILLER_0_12_29
*899 FILLER_0_12_297
*900 FILLER_0_12_3
*901 FILLER_0_12_305
*902 FILLER_0_12_309
*903 FILLER_0_12_327
*904 FILLER_0_12_339
*905 FILLER_0_12_41
*906 FILLER_0_12_53
*907 FILLER_0_12_65
*908 FILLER_0_12_77
*909 FILLER_0_12_83
*910 FILLER_0_12_85
*911 FILLER_0_12_97
*912 FILLER_0_13_105
*913 FILLER_0_13_111
*914 FILLER_0_13_113
*915 FILLER_0_13_125
*916 FILLER_0_13_137
*917 FILLER_0_13_15
*918 FILLER_0_13_154
*919 FILLER_0_13_162
*920 FILLER_0_13_169
*921 FILLER_0_13_175
*922 FILLER_0_13_185
*923 FILLER_0_13_194
*924 FILLER_0_13_201
*925 FILLER_0_13_213
*926 FILLER_0_13_246
*927 FILLER_0_13_263
*928 FILLER_0_13_27
*929 FILLER_0_13_275
*930 FILLER_0_13_291
*931 FILLER_0_13_299
*932 FILLER_0_13_3
*933 FILLER_0_13_314
*934 FILLER_0_13_322
*935 FILLER_0_13_328
*936 FILLER_0_13_340
*937 FILLER_0_13_348
*938 FILLER_0_13_39
*939 FILLER_0_13_51
*940 FILLER_0_13_55
*941 FILLER_0_13_57
*942 FILLER_0_13_69
*943 FILLER_0_13_81
*944 FILLER_0_13_93
*945 FILLER_0_14_109
*946 FILLER_0_14_121
*947 FILLER_0_14_133
*948 FILLER_0_14_139
*949 FILLER_0_14_147
*950 FILLER_0_14_15
*951 FILLER_0_14_161
*952 FILLER_0_14_173
*953 FILLER_0_14_213
*954 FILLER_0_14_225
*955 FILLER_0_14_235
*956 FILLER_0_14_247
*957 FILLER_0_14_251
*958 FILLER_0_14_253
*959 FILLER_0_14_267
*960 FILLER_0_14_27
*961 FILLER_0_14_271
*962 FILLER_0_14_278
*963 FILLER_0_14_284
*964 FILLER_0_14_29
*965 FILLER_0_14_296
*966 FILLER_0_14_3
*967 FILLER_0_14_304
*968 FILLER_0_14_333
*969 FILLER_0_14_41
*970 FILLER_0_14_49
*971 FILLER_0_14_57
*972 FILLER_0_14_82
*973 FILLER_0_14_85
*974 FILLER_0_14_97
*975 FILLER_0_15_111
*976 FILLER_0_15_113
*977 FILLER_0_15_141
*978 FILLER_0_15_15
*979 FILLER_0_15_156
*980 FILLER_0_15_175
*981 FILLER_0_15_187
*982 FILLER_0_15_193
*983 FILLER_0_15_197
*984 FILLER_0_15_205
*985 FILLER_0_15_215
*986 FILLER_0_15_223
*987 FILLER_0_15_225
*988 FILLER_0_15_229
*989 FILLER_0_15_253
*990 FILLER_0_15_27
*991 FILLER_0_15_278
*992 FILLER_0_15_281
*993 FILLER_0_15_294
*994 FILLER_0_15_3
*995 FILLER_0_15_306
*996 FILLER_0_15_314
*997 FILLER_0_15_319
*998 FILLER_0_15_331
*999 FILLER_0_15_337
*1000 FILLER_0_15_349
*1001 FILLER_0_15_39
*1002 FILLER_0_15_43
*1003 FILLER_0_15_53
*1004 FILLER_0_15_57
*1005 FILLER_0_15_69
*1006 FILLER_0_15_81
*1007 FILLER_0_15_93
*1008 FILLER_0_16_103
*1009 FILLER_0_16_113
*1010 FILLER_0_16_132
*1011 FILLER_0_16_136
*1012 FILLER_0_16_141
*1013 FILLER_0_16_15
*1014 FILLER_0_16_156
*1015 FILLER_0_16_184
*1016 FILLER_0_16_194
*1017 FILLER_0_16_203
*1018 FILLER_0_16_227
*1019 FILLER_0_16_234
*1020 FILLER_0_16_242
*1021 FILLER_0_16_27
*1022 FILLER_0_16_270
*1023 FILLER_0_16_3
*1024 FILLER_0_16_333
*1025 FILLER_0_16_45
*1026 FILLER_0_16_52
*1027 FILLER_0_16_60
*1028 FILLER_0_16_71
*1029 FILLER_0_16_80
*1030 FILLER_0_16_88
*1031 FILLER_0_16_99
*1032 FILLER_0_17_104
*1033 FILLER_0_17_110
*1034 FILLER_0_17_116
*1035 FILLER_0_17_124
*1036 FILLER_0_17_15
*1037 FILLER_0_17_166
*1038 FILLER_0_17_190
*1039 FILLER_0_17_196
*1040 FILLER_0_17_206
*1041 FILLER_0_17_223
*1042 FILLER_0_17_225
*1043 FILLER_0_17_239
*1044 FILLER_0_17_243
*1045 FILLER_0_17_27
*1046 FILLER_0_17_279
*1047 FILLER_0_17_289
*1048 FILLER_0_17_3
*1049 FILLER_0_17_309
*1050 FILLER_0_17_321
*1051 FILLER_0_17_327
*1052 FILLER_0_17_335
*1053 FILLER_0_17_337
*1054 FILLER_0_17_39
*1055 FILLER_0_17_52
*1056 FILLER_0_17_57
*1057 FILLER_0_17_69
*1058 FILLER_0_17_85
*1059 FILLER_0_18_105
*1060 FILLER_0_18_112
*1061 FILLER_0_18_124
*1062 FILLER_0_18_128
*1063 FILLER_0_18_138
*1064 FILLER_0_18_141
*1065 FILLER_0_18_175
*1066 FILLER_0_18_195
*1067 FILLER_0_18_220
*1068 FILLER_0_18_245
*1069 FILLER_0_18_251
*1070 FILLER_0_18_269
*1071 FILLER_0_18_27
*1072 FILLER_0_18_3
*1073 FILLER_0_18_301
*1074 FILLER_0_18_307
*1075 FILLER_0_18_326
*1076 FILLER_0_18_333
*1077 FILLER_0_18_44
*1078 FILLER_0_18_50
*1079 FILLER_0_18_64
*1080 FILLER_0_18_82
*1081 FILLER_0_18_85
*1082 FILLER_0_18_97
*1083 FILLER_0_19_103
*1084 FILLER_0_19_129
*1085 FILLER_0_19_141
*1086 FILLER_0_19_15
*1087 FILLER_0_19_160
*1088 FILLER_0_19_177
*1089 FILLER_0_19_186
*1090 FILLER_0_19_198
*1091 FILLER_0_19_27
*1092 FILLER_0_19_287
*1093 FILLER_0_19_297
*1094 FILLER_0_19_3
*1095 FILLER_0_19_309
*1096 FILLER_0_19_321
*1097 FILLER_0_19_331
*1098 FILLER_0_19_335
*1099 FILLER_0_19_337
*1100 FILLER_0_19_41
*1101 FILLER_0_19_50
*1102 FILLER_0_19_57
*1103 FILLER_0_19_69
*1104 FILLER_0_1_105
*1105 FILLER_0_1_111
*1106 FILLER_0_1_113
*1107 FILLER_0_1_125
*1108 FILLER_0_1_137
*1109 FILLER_0_1_149
*1110 FILLER_0_1_15
*1111 FILLER_0_1_161
*1112 FILLER_0_1_167
*1113 FILLER_0_1_169
*1114 FILLER_0_1_181
*1115 FILLER_0_1_193
*1116 FILLER_0_1_205
*1117 FILLER_0_1_217
*1118 FILLER_0_1_223
*1119 FILLER_0_1_225
*1120 FILLER_0_1_237
*1121 FILLER_0_1_249
*1122 FILLER_0_1_261
*1123 FILLER_0_1_27
*1124 FILLER_0_1_273
*1125 FILLER_0_1_279
*1126 FILLER_0_1_281
*1127 FILLER_0_1_293
*1128 FILLER_0_1_3
*1129 FILLER_0_1_305
*1130 FILLER_0_1_317
*1131 FILLER_0_1_329
*1132 FILLER_0_1_335
*1133 FILLER_0_1_337
*1134 FILLER_0_1_349
*1135 FILLER_0_1_39
*1136 FILLER_0_1_51
*1137 FILLER_0_1_55
*1138 FILLER_0_1_57
*1139 FILLER_0_1_69
*1140 FILLER_0_1_81
*1141 FILLER_0_1_93
*1142 FILLER_0_20_105
*1143 FILLER_0_20_11
*1144 FILLER_0_20_117
*1145 FILLER_0_20_129
*1146 FILLER_0_20_139
*1147 FILLER_0_20_141
*1148 FILLER_0_20_147
*1149 FILLER_0_20_151
*1150 FILLER_0_20_158
*1151 FILLER_0_20_170
*1152 FILLER_0_20_178
*1153 FILLER_0_20_213
*1154 FILLER_0_20_224
*1155 FILLER_0_20_242
*1156 FILLER_0_20_253
*1157 FILLER_0_20_265
*1158 FILLER_0_20_282
*1159 FILLER_0_20_290
*1160 FILLER_0_20_3
*1161 FILLER_0_20_306
*1162 FILLER_0_20_309
*1163 FILLER_0_20_320
*1164 FILLER_0_20_350
*1165 FILLER_0_20_48
*1166 FILLER_0_20_65
*1167 FILLER_0_20_79
*1168 FILLER_0_20_83
*1169 FILLER_0_20_85
*1170 FILLER_0_20_89
*1171 FILLER_0_21_106
*1172 FILLER_0_21_126
*1173 FILLER_0_21_143
*1174 FILLER_0_21_15
*1175 FILLER_0_21_166
*1176 FILLER_0_21_169
*1177 FILLER_0_21_186
*1178 FILLER_0_21_198
*1179 FILLER_0_21_210
*1180 FILLER_0_21_220
*1181 FILLER_0_21_225
*1182 FILLER_0_21_229
*1183 FILLER_0_21_248
*1184 FILLER_0_21_254
*1185 FILLER_0_21_269
*1186 FILLER_0_21_27
*1187 FILLER_0_21_277
*1188 FILLER_0_21_290
*1189 FILLER_0_21_3
*1190 FILLER_0_21_303
*1191 FILLER_0_21_315
*1192 FILLER_0_21_327
*1193 FILLER_0_21_335
*1194 FILLER_0_21_345
*1195 FILLER_0_21_39
*1196 FILLER_0_21_55
*1197 FILLER_0_21_70
*1198 FILLER_0_21_79
*1199 FILLER_0_21_91
*1200 FILLER_0_21_98
*1201 FILLER_0_22_111
*1202 FILLER_0_22_117
*1203 FILLER_0_22_129
*1204 FILLER_0_22_133
*1205 FILLER_0_22_15
*1206 FILLER_0_22_157
*1207 FILLER_0_22_163
*1208 FILLER_0_22_175
*1209 FILLER_0_22_187
*1210 FILLER_0_22_204
*1211 FILLER_0_22_210
*1212 FILLER_0_22_219
*1213 FILLER_0_22_245
*1214 FILLER_0_22_253
*1215 FILLER_0_22_27
*1216 FILLER_0_22_273
*1217 FILLER_0_22_288
*1218 FILLER_0_22_299
*1219 FILLER_0_22_3
*1220 FILLER_0_22_307
*1221 FILLER_0_22_309
*1222 FILLER_0_22_315
*1223 FILLER_0_22_329
*1224 FILLER_0_22_338
*1225 FILLER_0_22_342
*1226 FILLER_0_22_45
*1227 FILLER_0_22_62
*1228 FILLER_0_22_70
*1229 FILLER_0_22_80
*1230 FILLER_0_22_85
*1231 FILLER_0_22_97
*1232 FILLER_0_23_111
*1233 FILLER_0_23_157
*1234 FILLER_0_23_165
*1235 FILLER_0_23_17
*1236 FILLER_0_23_173
*1237 FILLER_0_23_182
*1238 FILLER_0_23_190
*1239 FILLER_0_23_203
*1240 FILLER_0_23_222
*1241 FILLER_0_23_225
*1242 FILLER_0_23_229
*1243 FILLER_0_23_264
*1244 FILLER_0_23_276
*1245 FILLER_0_23_281
*1246 FILLER_0_23_29
*1247 FILLER_0_23_293
*1248 FILLER_0_23_3
*1249 FILLER_0_23_310
*1250 FILLER_0_23_316
*1251 FILLER_0_23_326
*1252 FILLER_0_23_335
*1253 FILLER_0_23_39
*1254 FILLER_0_23_43
*1255 FILLER_0_23_47
*1256 FILLER_0_23_54
*1257 FILLER_0_23_61
*1258 FILLER_0_23_78
*1259 FILLER_0_23_82
*1260 FILLER_0_24_108
*1261 FILLER_0_24_120
*1262 FILLER_0_24_134
*1263 FILLER_0_24_141
*1264 FILLER_0_24_155
*1265 FILLER_0_24_171
*1266 FILLER_0_24_180
*1267 FILLER_0_24_192
*1268 FILLER_0_24_197
*1269 FILLER_0_24_205
*1270 FILLER_0_24_21
*1271 FILLER_0_24_213
*1272 FILLER_0_24_221
*1273 FILLER_0_24_230
*1274 FILLER_0_24_251
*1275 FILLER_0_24_253
*1276 FILLER_0_24_27
*1277 FILLER_0_24_3
*1278 FILLER_0_24_304
*1279 FILLER_0_24_309
*1280 FILLER_0_24_320
*1281 FILLER_0_24_331
*1282 FILLER_0_24_335
*1283 FILLER_0_24_350
*1284 FILLER_0_24_52
*1285 FILLER_0_24_70
*1286 FILLER_0_24_82
*1287 FILLER_0_25_111
*1288 FILLER_0_25_113
*1289 FILLER_0_25_119
*1290 FILLER_0_25_136
*1291 FILLER_0_25_15
*1292 FILLER_0_25_154
*1293 FILLER_0_25_167
*1294 FILLER_0_25_169
*1295 FILLER_0_25_197
*1296 FILLER_0_25_201
*1297 FILLER_0_25_215
*1298 FILLER_0_25_225
*1299 FILLER_0_25_242
*1300 FILLER_0_25_260
*1301 FILLER_0_25_27
*1302 FILLER_0_25_272
*1303 FILLER_0_25_276
*1304 FILLER_0_25_281
*1305 FILLER_0_25_3
*1306 FILLER_0_25_306
*1307 FILLER_0_25_310
*1308 FILLER_0_25_319
*1309 FILLER_0_25_325
*1310 FILLER_0_25_329
*1311 FILLER_0_25_335
*1312 FILLER_0_25_53
*1313 FILLER_0_25_57
*1314 FILLER_0_25_78
*1315 FILLER_0_26_109
*1316 FILLER_0_26_11
*1317 FILLER_0_26_117
*1318 FILLER_0_26_125
*1319 FILLER_0_26_137
*1320 FILLER_0_26_157
*1321 FILLER_0_26_163
*1322 FILLER_0_26_176
*1323 FILLER_0_26_195
*1324 FILLER_0_26_197
*1325 FILLER_0_26_20
*1326 FILLER_0_26_209
*1327 FILLER_0_26_221
*1328 FILLER_0_26_237
*1329 FILLER_0_26_250
*1330 FILLER_0_26_253
*1331 FILLER_0_26_259
*1332 FILLER_0_26_29
*1333 FILLER_0_26_295
*1334 FILLER_0_26_3
*1335 FILLER_0_26_307
*1336 FILLER_0_26_309
*1337 FILLER_0_26_329
*1338 FILLER_0_26_337
*1339 FILLER_0_26_344
*1340 FILLER_0_26_350
*1341 FILLER_0_26_40
*1342 FILLER_0_26_49
*1343 FILLER_0_26_71
*1344 FILLER_0_26_79
*1345 FILLER_0_26_85
*1346 FILLER_0_26_97
*1347 FILLER_0_27_111
*1348 FILLER_0_27_113
*1349 FILLER_0_27_135
*1350 FILLER_0_27_147
*1351 FILLER_0_27_165
*1352 FILLER_0_27_202
*1353 FILLER_0_27_211
*1354 FILLER_0_27_223
*1355 FILLER_0_27_231
*1356 FILLER_0_27_243
*1357 FILLER_0_27_247
*1358 FILLER_0_27_254
*1359 FILLER_0_27_266
*1360 FILLER_0_27_278
*1361 FILLER_0_27_281
*1362 FILLER_0_27_293
*1363 FILLER_0_27_31
*1364 FILLER_0_27_312
*1365 FILLER_0_27_324
*1366 FILLER_0_27_330
*1367 FILLER_0_27_334
*1368 FILLER_0_27_340
*1369 FILLER_0_27_35
*1370 FILLER_0_27_42
*1371 FILLER_0_27_86
*1372 FILLER_0_27_94
*1373 FILLER_0_28_103
*1374 FILLER_0_28_111
*1375 FILLER_0_28_119
*1376 FILLER_0_28_126
*1377 FILLER_0_28_135
*1378 FILLER_0_28_139
*1379 FILLER_0_28_148
*1380 FILLER_0_28_15
*1381 FILLER_0_28_156
*1382 FILLER_0_28_180
*1383 FILLER_0_28_186
*1384 FILLER_0_28_190
*1385 FILLER_0_28_209
*1386 FILLER_0_28_21
*1387 FILLER_0_28_221
*1388 FILLER_0_28_238
*1389 FILLER_0_28_250
*1390 FILLER_0_28_260
*1391 FILLER_0_28_268
*1392 FILLER_0_28_27
*1393 FILLER_0_28_283
*1394 FILLER_0_28_295
*1395 FILLER_0_28_3
*1396 FILLER_0_28_307
*1397 FILLER_0_28_309
*1398 FILLER_0_28_332
*1399 FILLER_0_28_349
*1400 FILLER_0_28_45
*1401 FILLER_0_28_49
*1402 FILLER_0_28_64
*1403 FILLER_0_28_76
*1404 FILLER_0_28_85
*1405 FILLER_0_29_103
*1406 FILLER_0_29_11
*1407 FILLER_0_29_111
*1408 FILLER_0_29_140
*1409 FILLER_0_29_150
*1410 FILLER_0_29_162
*1411 FILLER_0_29_17
*1412 FILLER_0_29_172
*1413 FILLER_0_29_184
*1414 FILLER_0_29_196
*1415 FILLER_0_29_215
*1416 FILLER_0_29_223
*1417 FILLER_0_29_225
*1418 FILLER_0_29_237
*1419 FILLER_0_29_241
*1420 FILLER_0_29_249
*1421 FILLER_0_29_261
*1422 FILLER_0_29_279
*1423 FILLER_0_29_28
*1424 FILLER_0_29_286
*1425 FILLER_0_29_290
*1426 FILLER_0_29_3
*1427 FILLER_0_29_308
*1428 FILLER_0_29_312
*1429 FILLER_0_29_326
*1430 FILLER_0_29_334
*1431 FILLER_0_29_337
*1432 FILLER_0_29_349
*1433 FILLER_0_29_52
*1434 FILLER_0_29_72
*1435 FILLER_0_29_84
*1436 FILLER_0_29_92
*1437 FILLER_0_2_109
*1438 FILLER_0_2_121
*1439 FILLER_0_2_133
*1440 FILLER_0_2_139
*1441 FILLER_0_2_141
*1442 FILLER_0_2_15
*1443 FILLER_0_2_153
*1444 FILLER_0_2_165
*1445 FILLER_0_2_177
*1446 FILLER_0_2_189
*1447 FILLER_0_2_195
*1448 FILLER_0_2_197
*1449 FILLER_0_2_209
*1450 FILLER_0_2_221
*1451 FILLER_0_2_233
*1452 FILLER_0_2_245
*1453 FILLER_0_2_251
*1454 FILLER_0_2_253
*1455 FILLER_0_2_265
*1456 FILLER_0_2_27
*1457 FILLER_0_2_277
*1458 FILLER_0_2_289
*1459 FILLER_0_2_29
*1460 FILLER_0_2_3
*1461 FILLER_0_2_301
*1462 FILLER_0_2_307
*1463 FILLER_0_2_309
*1464 FILLER_0_2_321
*1465 FILLER_0_2_333
*1466 FILLER_0_2_345
*1467 FILLER_0_2_41
*1468 FILLER_0_2_53
*1469 FILLER_0_2_65
*1470 FILLER_0_2_77
*1471 FILLER_0_2_83
*1472 FILLER_0_2_85
*1473 FILLER_0_2_97
*1474 FILLER_0_30_123
*1475 FILLER_0_30_131
*1476 FILLER_0_30_139
*1477 FILLER_0_30_147
*1478 FILLER_0_30_158
*1479 FILLER_0_30_173
*1480 FILLER_0_30_181
*1481 FILLER_0_30_193
*1482 FILLER_0_30_197
*1483 FILLER_0_30_202
*1484 FILLER_0_30_210
*1485 FILLER_0_30_216
*1486 FILLER_0_30_224
*1487 FILLER_0_30_24
*1488 FILLER_0_30_241
*1489 FILLER_0_30_253
*1490 FILLER_0_30_259
*1491 FILLER_0_30_269
*1492 FILLER_0_30_287
*1493 FILLER_0_30_29
*1494 FILLER_0_30_3
*1495 FILLER_0_30_303
*1496 FILLER_0_30_307
*1497 FILLER_0_30_309
*1498 FILLER_0_30_315
*1499 FILLER_0_30_328
*1500 FILLER_0_30_348
*1501 FILLER_0_30_49
*1502 FILLER_0_30_57
*1503 FILLER_0_30_63
*1504 FILLER_0_30_67
*1505 FILLER_0_30_73
*1506 FILLER_0_30_83
*1507 FILLER_0_30_85
*1508 FILLER_0_30_9
*1509 FILLER_0_31_110
*1510 FILLER_0_31_113
*1511 FILLER_0_31_124
*1512 FILLER_0_31_132
*1513 FILLER_0_31_161
*1514 FILLER_0_31_167
*1515 FILLER_0_31_169
*1516 FILLER_0_31_181
*1517 FILLER_0_31_193
*1518 FILLER_0_31_206
*1519 FILLER_0_31_218
*1520 FILLER_0_31_225
*1521 FILLER_0_31_233
*1522 FILLER_0_31_239
*1523 FILLER_0_31_24
*1524 FILLER_0_31_247
*1525 FILLER_0_31_259
*1526 FILLER_0_31_265
*1527 FILLER_0_31_271
*1528 FILLER_0_31_279
*1529 FILLER_0_31_281
*1530 FILLER_0_31_296
*1531 FILLER_0_31_3
*1532 FILLER_0_31_304
*1533 FILLER_0_31_311
*1534 FILLER_0_31_340
*1535 FILLER_0_31_348
*1536 FILLER_0_31_36
*1537 FILLER_0_31_48
*1538 FILLER_0_31_57
*1539 FILLER_0_31_72
*1540 FILLER_0_31_84
*1541 FILLER_0_31_92
*1542 FILLER_0_31_99
*1543 FILLER_0_32_100
*1544 FILLER_0_32_114
*1545 FILLER_0_32_132
*1546 FILLER_0_32_141
*1547 FILLER_0_32_15
*1548 FILLER_0_32_160
*1549 FILLER_0_32_168
*1550 FILLER_0_32_197
*1551 FILLER_0_32_209
*1552 FILLER_0_32_215
*1553 FILLER_0_32_223
*1554 FILLER_0_32_244
*1555 FILLER_0_32_260
*1556 FILLER_0_32_27
*1557 FILLER_0_32_271
*1558 FILLER_0_32_278
*1559 FILLER_0_32_29
*1560 FILLER_0_32_299
*1561 FILLER_0_32_3
*1562 FILLER_0_32_317
*1563 FILLER_0_32_329
*1564 FILLER_0_32_333
*1565 FILLER_0_32_350
*1566 FILLER_0_32_37
*1567 FILLER_0_32_53
*1568 FILLER_0_32_61
*1569 FILLER_0_32_68
*1570 FILLER_0_32_80
*1571 FILLER_0_32_85
*1572 FILLER_0_32_94
*1573 FILLER_0_33_10
*1574 FILLER_0_33_106
*1575 FILLER_0_33_113
*1576 FILLER_0_33_122
*1577 FILLER_0_33_126
*1578 FILLER_0_33_139
*1579 FILLER_0_33_145
*1580 FILLER_0_33_152
*1581 FILLER_0_33_166
*1582 FILLER_0_33_169
*1583 FILLER_0_33_181
*1584 FILLER_0_33_193
*1585 FILLER_0_33_20
*1586 FILLER_0_33_205
*1587 FILLER_0_33_218
*1588 FILLER_0_33_225
*1589 FILLER_0_33_237
*1590 FILLER_0_33_249
*1591 FILLER_0_33_261
*1592 FILLER_0_33_273
*1593 FILLER_0_33_279
*1594 FILLER_0_33_28
*1595 FILLER_0_33_281
*1596 FILLER_0_33_293
*1597 FILLER_0_33_3
*1598 FILLER_0_33_305
*1599 FILLER_0_33_328
*1600 FILLER_0_33_33
*1601 FILLER_0_33_344
*1602 FILLER_0_33_350
*1603 FILLER_0_33_49
*1604 FILLER_0_33_74
*1605 FILLER_0_33_78
*1606 FILLER_0_33_94
*1607 FILLER_0_34_102
*1608 FILLER_0_34_119
*1609 FILLER_0_34_128
*1610 FILLER_0_34_132
*1611 FILLER_0_34_166
*1612 FILLER_0_34_181
*1613 FILLER_0_34_200
*1614 FILLER_0_34_209
*1615 FILLER_0_34_228
*1616 FILLER_0_34_24
*1617 FILLER_0_34_240
*1618 FILLER_0_34_250
*1619 FILLER_0_34_269
*1620 FILLER_0_34_280
*1621 FILLER_0_34_286
*1622 FILLER_0_34_303
*1623 FILLER_0_34_307
*1624 FILLER_0_34_309
*1625 FILLER_0_34_320
*1626 FILLER_0_34_332
*1627 FILLER_0_34_336
*1628 FILLER_0_34_34
*1629 FILLER_0_34_343
*1630 FILLER_0_34_46
*1631 FILLER_0_34_68
*1632 FILLER_0_34_80
*1633 FILLER_0_34_85
*1634 FILLER_0_34_94
*1635 FILLER_0_35_110
*1636 FILLER_0_35_123
*1637 FILLER_0_35_138
*1638 FILLER_0_35_144
*1639 FILLER_0_35_15
*1640 FILLER_0_35_152
*1641 FILLER_0_35_156
*1642 FILLER_0_35_169
*1643 FILLER_0_35_178
*1644 FILLER_0_35_192
*1645 FILLER_0_35_213
*1646 FILLER_0_35_225
*1647 FILLER_0_35_23
*1648 FILLER_0_35_237
*1649 FILLER_0_35_245
*1650 FILLER_0_35_256
*1651 FILLER_0_35_268
*1652 FILLER_0_35_281
*1653 FILLER_0_35_295
*1654 FILLER_0_35_3
*1655 FILLER_0_35_307
*1656 FILLER_0_35_327
*1657 FILLER_0_35_335
*1658 FILLER_0_35_344
*1659 FILLER_0_35_350
*1660 FILLER_0_35_42
*1661 FILLER_0_35_54
*1662 FILLER_0_35_57
*1663 FILLER_0_35_63