*SPEF "ieee 1481-1999"
*DESIGN "tt_um_wokwi_380408486941145089"
*DATE "11:11:11 Fri 11 11, 1111"
*VENDOR "OpenRCX"
*PROGRAM "Parallel Extraction"
*VERSION "1.0"
*DESIGN_FLOW "NAME_SCOPE LOCAL" "PIN_CAP NONE"
*DIVIDER /
*DELIMITER :
*BUS_DELIMITER []
*T_UNIT 1 NS
*C_UNIT 1 PF
*R_UNIT 1 OHM
*L_UNIT 1 HENRY

*NAME_MAP
*3 clk
*4 ena
*5 rst_n
*6 ui_in[0]
*7 ui_in[1]
*8 ui_in[2]
*9 ui_in[3]
*10 ui_in[4]
*11 ui_in[5]
*12 ui_in[6]
*13 ui_in[7]
*14 uio_in[0]
*15 uio_in[1]
*16 uio_in[2]
*17 uio_in[3]
*18 uio_in[4]
*19 uio_in[5]
*20 uio_in[6]
*21 uio_in[7]
*22 net10
*23 net11
*24 net12
*25 net13
*26 net14
*27 net15
*28 net16
*29 net17
*30 net18
*31 net19
*32 net20
*33 net21
*34 net22
*35 net23
*36 net24
*37 net25
*38 uo_out[0]
*39 uo_out[1]
*40 uo_out[2]
*41 uo_out[3]
*42 uo_out[4]
*43 uo_out[5]
*44 uo_out[6]
*45 uo_out[7]
*46 _00_
*47 _02_
*48 _03_
*49 flop1\.d
*50 flop1\.q
*51 flop2\.d
*52 flop2\.q
*53 flop3\.d
*54 flop3\.q
*55 net1
*56 net2
*57 net26
*58 net27
*59 net3
*60 net4
*61 net5
*62 net6
*63 net7
*64 net8
*65 net9
*66 FILLER_0_0_109
*67 FILLER_0_0_113
*68 FILLER_0_0_125
*69 FILLER_0_0_137
*70 FILLER_0_0_141
*71 FILLER_0_0_15
*72 FILLER_0_0_153
*73 FILLER_0_0_165
*74 FILLER_0_0_169
*75 FILLER_0_0_181
*76 FILLER_0_0_193
*77 FILLER_0_0_197
*78 FILLER_0_0_209
*79 FILLER_0_0_221
*80 FILLER_0_0_225
*81 FILLER_0_0_237
*82 FILLER_0_0_249
*83 FILLER_0_0_253
*84 FILLER_0_0_265
*85 FILLER_0_0_27
*86 FILLER_0_0_277
*87 FILLER_0_0_281
*88 FILLER_0_0_29
*89 FILLER_0_0_293
*90 FILLER_0_0_3
*91 FILLER_0_0_305
*92 FILLER_0_0_309
*93 FILLER_0_0_321
*94 FILLER_0_0_333
*95 FILLER_0_0_337
*96 FILLER_0_0_349
*97 FILLER_0_0_41
*98 FILLER_0_0_53
*99 FILLER_0_0_57
*100 FILLER_0_0_69
*101 FILLER_0_0_81
*102 FILLER_0_0_85
*103 FILLER_0_0_97
*104 FILLER_0_10_109
*105 FILLER_0_10_121
*106 FILLER_0_10_133
*107 FILLER_0_10_139
*108 FILLER_0_10_141
*109 FILLER_0_10_15
*110 FILLER_0_10_153
*111 FILLER_0_10_165
*112 FILLER_0_10_177
*113 FILLER_0_10_189
*114 FILLER_0_10_195
*115 FILLER_0_10_197
*116 FILLER_0_10_209
*117 FILLER_0_10_221
*118 FILLER_0_10_233
*119 FILLER_0_10_245
*120 FILLER_0_10_251
*121 FILLER_0_10_253
*122 FILLER_0_10_265
*123 FILLER_0_10_27
*124 FILLER_0_10_277
*125 FILLER_0_10_289
*126 FILLER_0_10_29
*127 FILLER_0_10_3
*128 FILLER_0_10_301
*129 FILLER_0_10_307
*130 FILLER_0_10_309
*131 FILLER_0_10_321
*132 FILLER_0_10_333
*133 FILLER_0_10_345
*134 FILLER_0_10_41
*135 FILLER_0_10_53
*136 FILLER_0_10_65
*137 FILLER_0_10_77
*138 FILLER_0_10_83
*139 FILLER_0_10_85
*140 FILLER_0_10_97
*141 FILLER_0_11_105
*142 FILLER_0_11_111
*143 FILLER_0_11_113
*144 FILLER_0_11_125
*145 FILLER_0_11_137
*146 FILLER_0_11_149
*147 FILLER_0_11_15
*148 FILLER_0_11_161
*149 FILLER_0_11_167
*150 FILLER_0_11_169
*151 FILLER_0_11_181
*152 FILLER_0_11_193
*153 FILLER_0_11_205
*154 FILLER_0_11_217
*155 FILLER_0_11_223
*156 FILLER_0_11_225
*157 FILLER_0_11_237
*158 FILLER_0_11_249
*159 FILLER_0_11_261
*160 FILLER_0_11_27
*161 FILLER_0_11_273
*162 FILLER_0_11_279
*163 FILLER_0_11_281
*164 FILLER_0_11_293
*165 FILLER_0_11_3
*166 FILLER_0_11_305
*167 FILLER_0_11_317
*168 FILLER_0_11_329
*169 FILLER_0_11_335
*170 FILLER_0_11_337
*171 FILLER_0_11_349
*172 FILLER_0_11_39
*173 FILLER_0_11_51
*174 FILLER_0_11_55
*175 FILLER_0_11_57
*176 FILLER_0_11_69
*177 FILLER_0_11_81
*178 FILLER_0_11_93
*179 FILLER_0_12_109
*180 FILLER_0_12_121
*181 FILLER_0_12_133
*182 FILLER_0_12_139
*183 FILLER_0_12_141
*184 FILLER_0_12_15
*185 FILLER_0_12_153
*186 FILLER_0_12_165
*187 FILLER_0_12_177
*188 FILLER_0_12_189
*189 FILLER_0_12_195
*190 FILLER_0_12_197
*191 FILLER_0_12_209
*192 FILLER_0_12_221
*193 FILLER_0_12_233
*194 FILLER_0_12_245
*195 FILLER_0_12_251
*196 FILLER_0_12_253
*197 FILLER_0_12_265
*198 FILLER_0_12_27
*199 FILLER_0_12_277
*200 FILLER_0_12_289
*201 FILLER_0_12_29
*202 FILLER_0_12_3
*203 FILLER_0_12_301
*204 FILLER_0_12_307
*205 FILLER_0_12_309
*206 FILLER_0_12_321
*207 FILLER_0_12_333
*208 FILLER_0_12_345
*209 FILLER_0_12_41
*210 FILLER_0_12_53
*211 FILLER_0_12_65
*212 FILLER_0_12_77
*213 FILLER_0_12_83
*214 FILLER_0_12_85
*215 FILLER_0_12_97
*216 FILLER_0_13_105
*217 FILLER_0_13_111
*218 FILLER_0_13_113
*219 FILLER_0_13_125
*220 FILLER_0_13_137
*221 FILLER_0_13_149
*222 FILLER_0_13_15
*223 FILLER_0_13_161
*224 FILLER_0_13_167
*225 FILLER_0_13_169
*226 FILLER_0_13_181
*227 FILLER_0_13_193
*228 FILLER_0_13_205
*229 FILLER_0_13_217
*230 FILLER_0_13_223
*231 FILLER_0_13_225
*232 FILLER_0_13_237
*233 FILLER_0_13_249
*234 FILLER_0_13_261
*235 FILLER_0_13_27
*236 FILLER_0_13_273
*237 FILLER_0_13_279
*238 FILLER_0_13_281
*239 FILLER_0_13_293
*240 FILLER_0_13_3
*241 FILLER_0_13_305
*242 FILLER_0_13_317
*243 FILLER_0_13_329
*244 FILLER_0_13_335
*245 FILLER_0_13_337
*246 FILLER_0_13_349
*247 FILLER_0_13_39
*248 FILLER_0_13_51
*249 FILLER_0_13_55
*250 FILLER_0_13_57
*251 FILLER_0_13_69
*252 FILLER_0_13_81
*253 FILLER_0_13_93
*254 FILLER_0_14_109
*255 FILLER_0_14_121
*256 FILLER_0_14_133
*257 FILLER_0_14_139
*258 FILLER_0_14_141
*259 FILLER_0_14_15
*260 FILLER_0_14_153
*261 FILLER_0_14_165
*262 FILLER_0_14_177
*263 FILLER_0_14_189
*264 FILLER_0_14_195
*265 FILLER_0_14_197
*266 FILLER_0_14_209
*267 FILLER_0_14_221
*268 FILLER_0_14_233
*269 FILLER_0_14_245
*270 FILLER_0_14_251
*271 FILLER_0_14_253
*272 FILLER_0_14_265
*273 FILLER_0_14_27
*274 FILLER_0_14_277
*275 FILLER_0_14_289
*276 FILLER_0_14_29
*277 FILLER_0_14_3
*278 FILLER_0_14_301
*279 FILLER_0_14_307
*280 FILLER_0_14_309
*281 FILLER_0_14_321
*282 FILLER_0_14_333
*283 FILLER_0_14_345
*284 FILLER_0_14_41
*285 FILLER_0_14_53
*286 FILLER_0_14_65
*287 FILLER_0_14_77
*288 FILLER_0_14_83
*289 FILLER_0_14_85
*290 FILLER_0_14_97
*291 FILLER_0_15_105
*292 FILLER_0_15_111
*293 FILLER_0_15_113
*294 FILLER_0_15_125
*295 FILLER_0_15_137
*296 FILLER_0_15_149
*297 FILLER_0_15_15
*298 FILLER_0_15_161
*299 FILLER_0_15_167
*300 FILLER_0_15_169
*301 FILLER_0_15_181
*302 FILLER_0_15_193
*303 FILLER_0_15_205
*304 FILLER_0_15_217
*305 FILLER_0_15_223
*306 FILLER_0_15_225
*307 FILLER_0_15_237
*308 FILLER_0_15_249
*309 FILLER_0_15_261
*310 FILLER_0_15_27
*311 FILLER_0_15_273
*312 FILLER_0_15_279
*313 FILLER_0_15_281
*314 FILLER_0_15_293
*315 FILLER_0_15_3
*316 FILLER_0_15_305
*317 FILLER_0_15_317
*318 FILLER_0_15_329
*319 FILLER_0_15_335
*320 FILLER_0_15_337
*321 FILLER_0_15_349
*322 FILLER_0_15_39
*323 FILLER_0_15_51
*324 FILLER_0_15_55
*325 FILLER_0_15_57
*326 FILLER_0_15_69
*327 FILLER_0_15_81
*328 FILLER_0_15_93
*329 FILLER_0_16_109
*330 FILLER_0_16_121
*331 FILLER_0_16_133
*332 FILLER_0_16_139
*333 FILLER_0_16_141
*334 FILLER_0_16_15
*335 FILLER_0_16_153
*336 FILLER_0_16_165
*337 FILLER_0_16_177
*338 FILLER_0_16_189
*339 FILLER_0_16_195
*340 FILLER_0_16_197
*341 FILLER_0_16_209
*342 FILLER_0_16_221
*343 FILLER_0_16_233
*344 FILLER_0_16_245
*345 FILLER_0_16_251
*346 FILLER_0_16_253
*347 FILLER_0_16_265
*348 FILLER_0_16_27
*349 FILLER_0_16_277
*350 FILLER_0_16_289
*351 FILLER_0_16_29
*352 FILLER_0_16_3
*353 FILLER_0_16_301
*354 FILLER_0_16_307
*355 FILLER_0_16_309
*356 FILLER_0_16_321
*357 FILLER_0_16_333
*358 FILLER_0_16_345
*359 FILLER_0_16_41
*360 FILLER_0_16_53
*361 FILLER_0_16_65
*362 FILLER_0_16_77
*363 FILLER_0_16_83
*364 FILLER_0_16_85
*365 FILLER_0_16_97
*366 FILLER_0_17_105
*367 FILLER_0_17_111
*368 FILLER_0_17_113
*369 FILLER_0_17_125
*370 FILLER_0_17_137
*371 FILLER_0_17_149
*372 FILLER_0_17_15
*373 FILLER_0_17_161
*374 FILLER_0_17_167
*375 FILLER_0_17_169
*376 FILLER_0_17_181
*377 FILLER_0_17_193
*378 FILLER_0_17_205
*379 FILLER_0_17_217
*380 FILLER_0_17_223
*381 FILLER_0_17_225
*382 FILLER_0_17_237
*383 FILLER_0_17_249
*384 FILLER_0_17_261
*385 FILLER_0_17_27
*386 FILLER_0_17_273
*387 FILLER_0_17_279
*388 FILLER_0_17_281
*389 FILLER_0_17_293
*390 FILLER_0_17_3
*391 FILLER_0_17_305
*392 FILLER_0_17_317
*393 FILLER_0_17_329
*394 FILLER_0_17_335
*395 FILLER_0_17_337
*396 FILLER_0_17_349
*397 FILLER_0_17_39
*398 FILLER_0_17_51
*399 FILLER_0_17_55
*400 FILLER_0_17_57
*401 FILLER_0_17_69
*402 FILLER_0_17_81
*403 FILLER_0_17_93
*404 FILLER_0_18_109
*405 FILLER_0_18_121
*406 FILLER_0_18_133
*407 FILLER_0_18_139
*408 FILLER_0_18_141
*409 FILLER_0_18_15
*410 FILLER_0_18_153
*411 FILLER_0_18_165
*412 FILLER_0_18_177
*413 FILLER_0_18_189
*414 FILLER_0_18_195
*415 FILLER_0_18_197
*416 FILLER_0_18_209
*417 FILLER_0_18_221
*418 FILLER_0_18_233
*419 FILLER_0_18_245
*420 FILLER_0_18_251
*421 FILLER_0_18_253
*422 FILLER_0_18_265
*423 FILLER_0_18_27
*424 FILLER_0_18_277
*425 FILLER_0_18_289
*426 FILLER_0_18_29
*427 FILLER_0_18_3
*428 FILLER_0_18_301
*429 FILLER_0_18_307
*430 FILLER_0_18_309
*431 FILLER_0_18_321
*432 FILLER_0_18_333
*433 FILLER_0_18_345
*434 FILLER_0_18_41
*435 FILLER_0_18_53
*436 FILLER_0_18_65
*437 FILLER_0_18_77
*438 FILLER_0_18_83
*439 FILLER_0_18_85
*440 FILLER_0_18_97
*441 FILLER_0_19_105
*442 FILLER_0_19_111
*443 FILLER_0_19_113
*444 FILLER_0_19_125
*445 FILLER_0_19_137
*446 FILLER_0_19_149
*447 FILLER_0_19_15
*448 FILLER_0_19_161
*449 FILLER_0_19_167
*450 FILLER_0_19_169
*451 FILLER_0_19_181
*452 FILLER_0_19_193
*453 FILLER_0_19_205
*454 FILLER_0_19_217
*455 FILLER_0_19_223
*456 FILLER_0_19_225
*457 FILLER_0_19_237
*458 FILLER_0_19_249
*459 FILLER_0_19_261
*460 FILLER_0_19_27
*461 FILLER_0_19_273
*462 FILLER_0_19_279
*463 FILLER_0_19_281
*464 FILLER_0_19_293
*465 FILLER_0_19_3
*466 FILLER_0_19_305
*467 FILLER_0_19_317
*468 FILLER_0_19_329
*469 FILLER_0_19_335
*470 FILLER_0_19_337
*471 FILLER_0_19_349
*472 FILLER_0_19_39
*473 FILLER_0_19_51
*474 FILLER_0_19_55
*475 FILLER_0_19_57
*476 FILLER_0_19_69
*477 FILLER_0_19_81
*478 FILLER_0_19_93
*479 FILLER_0_1_105
*480 FILLER_0_1_111
*481 FILLER_0_1_113
*482 FILLER_0_1_125
*483 FILLER_0_1_137
*484 FILLER_0_1_149
*485 FILLER_0_1_15
*486 FILLER_0_1_161
*487 FILLER_0_1_167
*488 FILLER_0_1_169
*489 FILLER_0_1_181
*490 FILLER_0_1_193
*491 FILLER_0_1_205
*492 FILLER_0_1_217
*493 FILLER_0_1_223
*494 FILLER_0_1_225
*495 FILLER_0_1_237
*496 FILLER_0_1_249
*497 FILLER_0_1_261
*498 FILLER_0_1_27
*499 FILLER_0_1_273
*500 FILLER_0_1_279
*501 FILLER_0_1_281
*502 FILLER_0_1_293
*503 FILLER_0_1_3
*504 FILLER_0_1_305
*505 FILLER_0_1_317
*506 FILLER_0_1_329
*507 FILLER_0_1_335
*508 FILLER_0_1_337
*509 FILLER_0_1_349
*510 FILLER_0_1_39
*511 FILLER_0_1_51
*512 FILLER_0_1_55
*513 FILLER_0_1_57
*514 FILLER_0_1_69
*515 FILLER_0_1_81
*516 FILLER_0_1_93
*517 FILLER_0_20_109
*518 FILLER_0_20_121
*519 FILLER_0_20_133
*520 FILLER_0_20_139
*521 FILLER_0_20_141
*522 FILLER_0_20_15
*523 FILLER_0_20_153
*524 FILLER_0_20_165
*525 FILLER_0_20_177
*526 FILLER_0_20_189
*527 FILLER_0_20_195
*528 FILLER_0_20_197
*529 FILLER_0_20_209
*530 FILLER_0_20_221
*531 FILLER_0_20_233
*532 FILLER_0_20_245
*533 FILLER_0_20_251
*534 FILLER_0_20_253
*535 FILLER_0_20_265
*536 FILLER_0_20_27
*537 FILLER_0_20_277
*538 FILLER_0_20_289
*539 FILLER_0_20_29
*540 FILLER_0_20_3
*541 FILLER_0_20_301
*542 FILLER_0_20_307
*543 FILLER_0_20_309
*544 FILLER_0_20_321
*545 FILLER_0_20_333
*546 FILLER_0_20_345
*547 FILLER_0_20_41
*548 FILLER_0_20_53
*549 FILLER_0_20_65
*550 FILLER_0_20_77
*551 FILLER_0_20_83
*552 FILLER_0_20_85
*553 FILLER_0_20_97
*554 FILLER_0_21_105
*555 FILLER_0_21_111
*556 FILLER_0_21_113
*557 FILLER_0_21_125
*558 FILLER_0_21_137
*559 FILLER_0_21_149
*560 FILLER_0_21_15
*561 FILLER_0_21_161
*562 FILLER_0_21_167
*563 FILLER_0_21_169
*564 FILLER_0_21_181
*565 FILLER_0_21_193
*566 FILLER_0_21_205
*567 FILLER_0_21_217
*568 FILLER_0_21_223
*569 FILLER_0_21_225
*570 FILLER_0_21_237
*571 FILLER_0_21_249
*572 FILLER_0_21_261
*573 FILLER_0_21_27
*574 FILLER_0_21_273
*575 FILLER_0_21_279
*576 FILLER_0_21_281
*577 FILLER_0_21_293
*578 FILLER_0_21_3
*579 FILLER_0_21_305
*580 FILLER_0_21_317
*581 FILLER_0_21_329
*582 FILLER_0_21_335
*583 FILLER_0_21_337
*584 FILLER_0_21_349
*585 FILLER_0_21_39
*586 FILLER_0_21_51
*587 FILLER_0_21_55
*588 FILLER_0_21_57
*589 FILLER_0_21_69
*590 FILLER_0_21_81
*591 FILLER_0_21_93
*592 FILLER_0_22_109
*593 FILLER_0_22_121
*594 FILLER_0_22_133
*595 FILLER_0_22_139
*596 FILLER_0_22_141
*597 FILLER_0_22_15
*598 FILLER_0_22_153
*599 FILLER_0_22_165
*600 FILLER_0_22_177
*601 FILLER_0_22_189
*602 FILLER_0_22_195
*603 FILLER_0_22_197
*604 FILLER_0_22_209
*605 FILLER_0_22_221
*606 FILLER_0_22_233
*607 FILLER_0_22_245
*608 FILLER_0_22_251
*609 FILLER_0_22_253
*610 FILLER_0_22_265
*611 FILLER_0_22_27
*612 FILLER_0_22_277
*613 FILLER_0_22_289
*614 FILLER_0_22_29
*615 FILLER_0_22_3
*616 FILLER_0_22_301
*617 FILLER_0_22_307
*618 FILLER_0_22_309
*619 FILLER_0_22_321
*620 FILLER_0_22_333
*621 FILLER_0_22_345
*622 FILLER_0_22_41
*623 FILLER_0_22_53
*624 FILLER_0_22_65
*625 FILLER_0_22_77
*626 FILLER_0_22_83
*627 FILLER_0_22_85
*628 FILLER_0_22_97
*629 FILLER_0_23_105
*630 FILLER_0_23_111
*631 FILLER_0_23_113
*632 FILLER_0_23_125
*633 FILLER_0_23_137
*634 FILLER_0_23_149
*635 FILLER_0_23_15
*636 FILLER_0_23_161
*637 FILLER_0_23_167
*638 FILLER_0_23_169
*639 FILLER_0_23_181
*640 FILLER_0_23_193
*641 FILLER_0_23_205
*642 FILLER_0_23_217
*643 FILLER_0_23_223
*644 FILLER_0_23_225
*645 FILLER_0_23_237
*646 FILLER_0_23_249
*647 FILLER_0_23_261
*648 FILLER_0_23_27
*649 FILLER_0_23_273
*650 FILLER_0_23_279
*651 FILLER_0_23_281
*652 FILLER_0_23_293
*653 FILLER_0_23_3
*654 FILLER_0_23_305
*655 FILLER_0_23_317
*656 FILLER_0_23_329
*657 FILLER_0_23_335
*658 FILLER_0_23_337
*659 FILLER_0_23_349
*660 FILLER_0_23_39
*661 FILLER_0_23_51
*662 FILLER_0_23_55
*663 FILLER_0_23_57
*664 FILLER_0_23_69
*665 FILLER_0_23_81
*666 FILLER_0_23_93
*667 FILLER_0_24_109
*668 FILLER_0_24_121
*669 FILLER_0_24_133
*670 FILLER_0_24_139
*671 FILLER_0_24_141
*672 FILLER_0_24_15
*673 FILLER_0_24_153
*674 FILLER_0_24_165
*675 FILLER_0_24_177
*676 FILLER_0_24_189
*677 FILLER_0_24_195
*678 FILLER_0_24_197
*679 FILLER_0_24_209
*680 FILLER_0_24_221
*681 FILLER_0_24_233
*682 FILLER_0_24_245
*683 FILLER_0_24_251
*684 FILLER_0_24_253
*685 FILLER_0_24_265
*686 FILLER_0_24_27
*687 FILLER_0_24_277
*688 FILLER_0_24_289
*689 FILLER_0_24_29
*690 FILLER_0_24_3
*691 FILLER_0_24_301
*692 FILLER_0_24_307
*693 FILLER_0_24_309
*694 FILLER_0_24_321
*695 FILLER_0_24_333
*696 FILLER_0_24_345
*697 FILLER_0_24_41
*698 FILLER_0_24_53
*699 FILLER_0_24_65
*700 FILLER_0_24_77
*701 FILLER_0_24_83
*702 FILLER_0_24_85
*703 FILLER_0_24_97
*704 FILLER_0_25_105
*705 FILLER_0_25_111
*706 FILLER_0_25_113
*707 FILLER_0_25_125
*708 FILLER_0_25_137
*709 FILLER_0_25_149
*710 FILLER_0_25_15
*711 FILLER_0_25_161
*712 FILLER_0_25_167
*713 FILLER_0_25_169
*714 FILLER_0_25_181
*715 FILLER_0_25_193
*716 FILLER_0_25_205
*717 FILLER_0_25_217
*718 FILLER_0_25_223
*719 FILLER_0_25_225
*720 FILLER_0_25_237
*721 FILLER_0_25_249
*722 FILLER_0_25_261
*723 FILLER_0_25_27
*724 FILLER_0_25_273
*725 FILLER_0_25_279
*726 FILLER_0_25_281
*727 FILLER_0_25_293
*728 FILLER_0_25_3
*729 FILLER_0_25_305
*730 FILLER_0_25_317
*731 FILLER_0_25_329
*732 FILLER_0_25_335
*733 FILLER_0_25_337
*734 FILLER_0_25_349
*735 FILLER_0_25_39
*736 FILLER_0_25_51
*737 FILLER_0_25_55
*738 FILLER_0_25_57
*739 FILLER_0_25_69
*740 FILLER_0_25_81
*741 FILLER_0_25_93
*742 FILLER_0_26_109
*743 FILLER_0_26_121
*744 FILLER_0_26_133
*745 FILLER_0_26_139
*746 FILLER_0_26_141
*747 FILLER_0_26_15
*748 FILLER_0_26_153
*749 FILLER_0_26_165
*750 FILLER_0_26_177
*751 FILLER_0_26_189
*752 FILLER_0_26_195
*753 FILLER_0_26_197
*754 FILLER_0_26_209
*755 FILLER_0_26_221
*756 FILLER_0_26_233
*757 FILLER_0_26_245
*758 FILLER_0_26_251
*759 FILLER_0_26_253
*760 FILLER_0_26_265
*761 FILLER_0_26_27
*762 FILLER_0_26_277
*763 FILLER_0_26_289
*764 FILLER_0_26_29
*765 FILLER_0_26_3
*766 FILLER_0_26_301
*767 FILLER_0_26_307
*768 FILLER_0_26_309
*769 FILLER_0_26_321
*770 FILLER_0_26_333
*771 FILLER_0_26_345
*772 FILLER_0_26_41
*773 FILLER_0_26_53
*774 FILLER_0_26_65
*775 FILLER_0_26_77
*776 FILLER_0_26_83
*777 FILLER_0_26_85
*778 FILLER_0_26_97
*779 FILLER_0_27_105
*780 FILLER_0_27_111
*781 FILLER_0_27_113
*782 FILLER_0_27_125
*783 FILLER_0_27_137
*784 FILLER_0_27_149
*785 FILLER_0_27_15
*786 FILLER_0_27_161
*787 FILLER_0_27_167
*788 FILLER_0_27_169
*789 FILLER_0_27_181
*790 FILLER_0_27_193
*791 FILLER_0_27_205
*792 FILLER_0_27_217
*793 FILLER_0_27_223
*794 FILLER_0_27_225
*795 FILLER_0_27_237
*796 FILLER_0_27_249
*797 FILLER_0_27_261
*798 FILLER_0_27_27
*799 FILLER_0_27_273
*800 FILLER_0_27_279
*801 FILLER_0_27_281
*802 FILLER_0_27_293
*803 FILLER_0_27_3
*804 FILLER_0_27_305
*805 FILLER_0_27_317
*806 FILLER_0_27_329
*807 FILLER_0_27_335
*808 FILLER_0_27_337
*809 FILLER_0_27_349
*810 FILLER_0_27_39
*811 FILLER_0_27_51
*812 FILLER_0_27_55
*813 FILLER_0_27_57
*814 FILLER_0_27_69
*815 FILLER_0_27_81
*816 FILLER_0_27_93
*817 FILLER_0_28_109
*818 FILLER_0_28_121
*819 FILLER_0_28_133
*820 FILLER_0_28_139
*821 FILLER_0_28_141
*822 FILLER_0_28_15
*823 FILLER_0_28_153
*824 FILLER_0_28_165
*825 FILLER_0_28_177
*826 FILLER_0_28_189
*827 FILLER_0_28_195
*828 FILLER_0_28_197
*829 FILLER_0_28_209
*830 FILLER_0_28_221
*831 FILLER_0_28_233
*832 FILLER_0_28_245
*833 FILLER_0_28_251
*834 FILLER_0_28_253
*835 FILLER_0_28_265
*836 FILLER_0_28_27
*837 FILLER_0_28_277
*838 FILLER_0_28_289
*839 FILLER_0_28_29
*840 FILLER_0_28_3
*841 FILLER_0_28_301
*842 FILLER_0_28_307
*843 FILLER_0_28_309
*844 FILLER_0_28_321
*845 FILLER_0_28_333
*846 FILLER_0_28_345
*847 FILLER_0_28_41
*848 FILLER_0_28_53
*849 FILLER_0_28_65
*850 FILLER_0_28_77
*851 FILLER_0_28_83
*852 FILLER_0_28_85
*853 FILLER_0_28_97
*854 FILLER_0_29_105
*855 FILLER_0_29_111
*856 FILLER_0_29_113
*857 FILLER_0_29_125
*858 FILLER_0_29_137
*859 FILLER_0_29_149
*860 FILLER_0_29_15
*861 FILLER_0_29_161
*862 FILLER_0_29_167
*863 FILLER_0_29_169
*864 FILLER_0_29_181
*865 FILLER_0_29_193
*866 FILLER_0_29_205
*867 FILLER_0_29_217
*868 FILLER_0_29_223
*869 FILLER_0_29_225
*870 FILLER_0_29_237
*871 FILLER_0_29_249
*872 FILLER_0_29_261
*873 FILLER_0_29_27
*874 FILLER_0_29_273
*875 FILLER_0_29_279
*876 FILLER_0_29_281
*877 FILLER_0_29_293
*878 FILLER_0_29_3
*879 FILLER_0_29_305
*880 FILLER_0_29_317
*881 FILLER_0_29_329
*882 FILLER_0_29_335
*883 FILLER_0_29_337
*884 FILLER_0_29_349
*885 FILLER_0_29_39
*886 FILLER_0_29_51
*887 FILLER_0_29_55
*888 FILLER_0_29_57
*889 FILLER_0_29_69
*890 FILLER_0_29_81
*891 FILLER_0_29_93
*892 FILLER_0_2_109
*893 FILLER_0_2_121
*894 FILLER_0_2_133
*895 FILLER_0_2_139
*896 FILLER_0_2_141
*897 FILLER_0_2_15
*898 FILLER_0_2_153
*899 FILLER_0_2_165
*900 FILLER_0_2_177
*901 FILLER_0_2_189
*902 FILLER_0_2_195
*903 FILLER_0_2_197
*904 FILLER_0_2_209
*905 FILLER_0_2_221
*906 FILLER_0_2_233
*907 FILLER_0_2_245
*908 FILLER_0_2_251
*909 FILLER_0_2_253
*910 FILLER_0_2_265
*911 FILLER_0_2_27
*912 FILLER_0_2_277
*913 FILLER_0_2_289
*914 FILLER_0_2_29
*915 FILLER_0_2_3
*916 FILLER_0_2_301
*917 FILLER_0_2_307
*918 FILLER_0_2_309
*919 FILLER_0_2_321
*920 FILLER_0_2_333
*921 FILLER_0_2_345
*922 FILLER_0_2_41
*923 FILLER_0_2_53
*924 FILLER_0_2_65
*925 FILLER_0_2_77
*926 FILLER_0_2_83
*927 FILLER_0_2_85
*928 FILLER_0_2_97
*929 FILLER_0_30_109
*930 FILLER_0_30_121
*931 FILLER_0_30_133
*932 FILLER_0_30_139
*933 FILLER_0_30_141
*934 FILLER_0_30_15
*935 FILLER_0_30_153
*936 FILLER_0_30_165
*937 FILLER_0_30_177
*938 FILLER_0_30_189
*939 FILLER_0_30_195
*940 FILLER_0_30_197
*941 FILLER_0_30_209
*942 FILLER_0_30_221
*943 FILLER_0_30_233
*944 FILLER_0_30_245
*945 FILLER_0_30_251
*946 FILLER_0_30_253
*947 FILLER_0_30_265
*948 FILLER_0_30_27
*949 FILLER_0_30_277
*950 FILLER_0_30_289
*951 FILLER_0_30_29
*952 FILLER_0_30_3
*953 FILLER_0_30_301
*954 FILLER_0_30_307
*955 FILLER_0_30_309
*956 FILLER_0_30_321
*957 FILLER_0_30_333
*958 FILLER_0_30_345
*959 FILLER_0_30_41
*960 FILLER_0_30_53
*961 FILLER_0_30_65
*962 FILLER_0_30_77
*963 FILLER_0_30_83
*964 FILLER_0_30_85
*965 FILLER_0_30_97
*966 FILLER_0_31_105
*967 FILLER_0_31_111
*968 FILLER_0_31_113
*969 FILLER_0_31_125
*970 FILLER_0_31_137
*971 FILLER_0_31_149
*972 FILLER_0_31_15
*973 FILLER_0_31_161
*974 FILLER_0_31_167
*975 FILLER_0_31_169
*976 FILLER_0_31_181
*977 FILLER_0_31_193
*978 FILLER_0_31_205
*979 FILLER_0_31_217
*980 FILLER_0_31_223
*981 FILLER_0_31_225
*982 FILLER_0_31_237
*983 FILLER_0_31_249
*984 FILLER_0_31_261
*985 FILLER_0_31_27
*986 FILLER_0_31_273
*987 FILLER_0_31_279
*988 FILLER_0_31_281
*989 FILLER_0_31_293
*990 FILLER_0_31_3
*991 FILLER_0_31_305
*992 FILLER_0_31_317
*993 FILLER_0_31_329
*994 FILLER_0_31_335
*995 FILLER_0_31_337
*996 FILLER_0_31_349
*997 FILLER_0_31_39
*998 FILLER_0_31_51
*999 FILLER_0_31_55
*1000 FILLER_0_31_57
*1001 FILLER_0_31_69
*1002 FILLER_0_31_81
*1003 FILLER_0_31_93
*1004 FILLER_0_32_109
*1005 FILLER_0_32_121
*1006 FILLER_0_32_133
*1007 FILLER_0_32_139
*1008 FILLER_0_32_141
*1009 FILLER_0_32_15
*1010 FILLER_0_32_153
*1011 FILLER_0_32_165
*1012 FILLER_0_32_177
*1013 FILLER_0_32_189
*1014 FILLER_0_32_195
*1015 FILLER_0_32_197
*1016 FILLER_0_32_209
*1017 FILLER_0_32_221
*1018 FILLER_0_32_233
*1019 FILLER_0_32_245
*1020 FILLER_0_32_251
*1021 FILLER_0_32_253
*1022 FILLER_0_32_265
*1023 FILLER_0_32_27
*1024 FILLER_0_32_277
*1025 FILLER_0_32_289
*1026 FILLER_0_32_29
*1027 FILLER_0_32_3
*1028 FILLER_0_32_301
*1029 FILLER_0_32_307
*1030 FILLER_0_32_309
*1031 FILLER_0_32_321
*1032 FILLER_0_32_333
*1033 FILLER_0_32_345
*1034 FILLER_0_32_41
*1035 FILLER_0_32_53
*1036 FILLER_0_32_65
*1037 FILLER_0_32_77
*1038 FILLER_0_32_83
*1039 FILLER_0_32_85
*1040 FILLER_0_32_97
*1041 FILLER_0_33_105
*1042 FILLER_0_33_111
*1043 FILLER_0_33_113
*1044 FILLER_0_33_125
*1045 FILLER_0_33_137
*1046 FILLER_0_33_149
*1047 FILLER_0_33_15
*1048 FILLER_0_33_161
*1049 FILLER_0_33_167
*1050 FILLER_0_33_169
*1051 FILLER_0_33_181
*1052 FILLER_0_33_193
*1053 FILLER_0_33_205
*1054 FILLER_0_33_217
*1055 FILLER_0_33_223
*1056 FILLER_0_33_225
*1057 FILLER_0_33_237
*1058 FILLER_0_33_249
*1059 FILLER_0_33_261
*1060 FILLER_0_33_27
*1061 FILLER_0_33_273
*1062 FILLER_0_33_279
*1063 FILLER_0_33_281
*1064 FILLER_0_33_293
*1065 FILLER_0_33_3
*1066 FILLER_0_33_305
*1067 FILLER_0_33_317
*1068 FILLER_0_33_329
*1069 FILLER_0_33_335
*1070 FILLER_0_33_337
*1071 FILLER_0_33_349
*1072 FILLER_0_33_39
*1073 FILLER_0_33_51
*1074 FILLER_0_33_55
*1075 FILLER_0_33_57
*1076 FILLER_0_33_69
*1077 FILLER_0_33_81
*1078 FILLER_0_33_93
*1079 FILLER_0_34_109
*1080 FILLER_0_34_121
*1081 FILLER_0_34_133
*1082 FILLER_0_34_139
*1083 FILLER_0_34_141
*1084 FILLER_0_34_15
*1085 FILLER_0_34_153
*1086 FILLER_0_34_165
*1087 FILLER_0_34_177
*1088 FILLER_0_34_189
*1089 FILLER_0_34_195
*1090 FILLER_0_34_197
*1091 FILLER_0_34_209
*1092 FILLER_0_34_221
*1093 FILLER_0_34_233
*1094 FILLER_0_34_245
*1095 FILLER_0_34_251
*1096 FILLER_0_34_253
*1097 FILLER_0_34_265
*1098 FILLER_0_34_27
*1099 FILLER_0_34_277
*1100 FILLER_0_34_289
*1101 FILLER_0_34_29
*1102 FILLER_0_34_3
*1103 FILLER_0_34_301
*1104 FILLER_0_34_307
*1105 FILLER_0_34_309
*1106 FILLER_0_34_321
*1107 FILLER_0_34_333
*1108 FILLER_0_34_345
*1109 FILLER_0_34_41
*1110 FILLER_0_34_53
*1111 FILLER_0_34_65
*1112 FILLER_0_34_77
*1113 FILLER_0_34_83
*1114 FILLER_0_34_85
*1115 FILLER_0_34_97
*1116 FILLER_0_35_105
*1117 FILLER_0_35_111
*1118 FILLER_0_35_113
*1119 FILLER_0_35_125
*1120 FILLER_0_35_137
*1121 FILLER_0_35_149
*1122 FILLER_0_35_15
*1123 FILLER_0_35_161
*1124 FILLER_0_35_167
*1125 FILLER_0_35_169
*1126 FILLER_0_35_181
*1127 FILLER_0_35_193
*1128 FILLER_0_35_205
*1129 FILLER_0_35_217
*1130 FILLER_0_35_223
*1131 FILLER_0_35_225
*1132 FILLER_0_35_237
*1133 FILLER_0_35_249
*1134 FILLER_0_35_261
*1135 FILLER_0_35_27
*1136 FILLER_0_35_273
*1137 FILLER_0_35_279
*1138 FILLER_0_35_281
*1139 FILLER_0_35_293
*1140 FILLER_0_35_3
*1141 FILLER_0_35_305
*1142 FILLER_0_35_317
*1143 FILLER_0_35_329
*1144 FILLER_0_35_335
*1145 FILLER_0_35_337
*1146 FILLER_0_35_349
*1147 FILLER_0_35_39
*1148 FILLER_0_35_51
*1149 FILLER_0_35_55
*1150 FILLER_0_35_57
*1151 FILLER_0_35_69
*1152 FILLER_0_35_81
*1153 FILLER_0_35_93
*1154 FILLER_0_36_109
*1155 FILLER_0_36_121
*1156 FILLER_0_36_133
*1157 FILLER_0_36_139
*1158 FILLER_0_36_141
*1159 FILLER_0_36_15
*1160 FILLER_0_36_153
*1161 FILLER_0_36_165
*1162 FILLER_0_36_177
*1163 FILLER_0_36_189
*1164 FILLER_0_36_195
*1165 FILLER_0_36_197
*1166 FILLER_0_36_209
*1167 FILLER_0_36_221
*1168 FILLER_0_36_233
*1169 FILLER_0_36_245
*1170 FILLER_0_36_251
*1171 FILLER_0_36_27
*1172 FILLER_0_36_279
*1173 FILLER_0_36_29
*1174 FILLER_0_36_291
*1175 FILLER_0_36_3
*1176 FILLER_0_36_303
*1177 FILLER_0_36_307
*1178 FILLER_0_36_309
*1179 FILLER_0_36_321
*1180 FILLER_0_36_333
*1181 FILLER_0_36_345
*1182 FILLER_0_36_41
*1183 FILLER_0_36_53
*1184 FILLER_0_36_65
*1185 FILLER_0_36_77
*1186 FILLER_0_36_83
*1187 FILLER_0_36_85
*1188 FILLER_0_36_97
*1189 FILLER_0_37_105
*1190 FILLER_0_37_111
*1191 FILLER_0_37_113
*1192 FILLER_0_37_125
*1193 FILLER_0_37_137
*1194 FILLER_0_37_149
*1195 FILLER_0_37_15
*1196 FILLER_0_37_161
*1197 FILLER_0_37_167
*1198 FILLER_0_37_169
*1199 FILLER_0_37_181
*1200 FILLER_0_37_193
*1201 FILLER_0_37_205
*1202 FILLER_0_37_217
*1203 FILLER_0_37_223
*1204 FILLER_0_37_225
*1205 FILLER_0_37_237
*1206 FILLER_0_37_245
*1207 FILLER_0_37_27
*1208 FILLER_0_37_273
*1209 FILLER_0_37_279
*1210 FILLER_0_37_281
*1211 FILLER_0_37_285
*1212 FILLER_0_37_3
*1213 FILLER_0_37_318
*1214 FILLER_0_37_330
*1215 FILLER_0_37_337
*1216 FILLER_0_37_349
*1217 FILLER_0_37_39
*1218 FILLER_0_37_51
*1219 FILLER_0_37_55
*1220 FILLER_0_37_57
*1221 FILLER_0_37_69
*1222 FILLER_0_37_81
*1223 FILLER_0_37_93
*1224 FILLER_0_38_104
*1225 FILLER_0_38_110
*1226 FILLER_0_38_116
*1227 FILLER_0_38_122
*1228 FILLER_0_38_128
*1229 FILLER_0_38_134
*1230 FILLER_0_38_141
*1231 FILLER_0_38_146
*1232 FILLER_0_38_15
*1233 FILLER_0_38_152
*1234 FILLER_0_38_158
*1235 FILLER_0_38_162
*1236 FILLER_0_38_167
*1237 FILLER_0_38_169
*1238 FILLER_0_38_179
*1239 FILLER_0_38_185
*1240 FILLER_0_38_193
*1241 FILLER_0_38_205
*1242 FILLER_0_38_213
*1243 FILLER_0_38_220
*1244 FILLER_0_38_225
*1245 FILLER_0_38_237
*1246 FILLER_0_38_249
*1247 FILLER_0_38_253
*1248 FILLER_0_38_260
*1249 FILLER_0_38_266
*1250 FILLER_0_38_27
*1251 FILLER_0_38_272
*1252 FILLER_0_38_278
*1253 FILLER_0_38_29
*1254 FILLER_0_38_3
*1255 FILLER_0_38_307
*1256 FILLER_0_38_315
*1257 FILLER_0_38_333
*1258 FILLER_0_38_337
*1259 FILLER_0_38_349
*1260 FILLER_0_38_41
*1261 FILLER_0_38_53
*1262 FILLER_0_38_57
*1263 FILLER_0_38_68
*1264 FILLER_0_38_74
*1265 FILLER_0_38_80
*1266 FILLER_0_38_88
*1267 FILLER_0_38_92
*1268 FILLER_0_38_98
*1269 FILLER_0_3_105
*1270 FILLER_0_3_111
*1271 FILLER_0_3_113
*1272 FILLER_0_3_125
*1273 FILLER_0_3_137
*1274 FILLER_0_3_149
*1275 FILLER_0_3_15
*1276 FILLER_0_3_161
*1277 FILLER_0_3_167
*1278 FILLER_0_3_169
*1279 FILLER_0_3_181
*1280 FILLER_0_3_193
*1281 FILLER_0_3_205
*1282 FILLER_0_3_217
*1283 FILLER_0_3_223
*1284 FILLER_0_3_225
*1285 FILLER_0_3_237
*1286 FILLER_0_3_249
*1287 FILLER_0_3_261
*1288 FILLER_0_3_27
*1289 FILLER_0_3_273
*1290 FILLER_0_3_279
*1291 FILLER_0_3_281
*1292 FILLER_0_3_293
*1293 FILLER_0_3_3
*1294 FILLER_0_3_305
*1295 FILLER_0_3_317
*1296 FILLER_0_3_329
*1297 FILLER_0_3_335
*1298 FILLER_0_3_337
*1299 FILLER_0_3_349
*1300 FILLER_0_3_39
*1301 FILLER_0_3_51
*1302 FILLER_0_3_55
*1303 FILLER_0_3_57
*1304 FILLER_0_3_69
*1305 FILLER_0_3_81
*1306 FILLER_0_3_93
*1307 FILLER_0_4_109
*1308 FILLER_0_4_121
*1309 FILLER_0_4_133
*1310 FILLER_0_4_139
*1311 FILLER_0_4_141
*1312 FILLER_0_4_15
*1313 FILLER_0_4_153
*1314 FILLER_0_4_165
*1315 FILLER_0_4_177
*1316 FILLER_0_4_189
*1317 FILLER_0_4_195
*1318 FILLER_0_4_197
*1319 FILLER_0_4_209
*1320 FILLER_0_4_221
*1321 FILLER_0_4_233
*1322 FILLER_0_4_245
*1323 FILLER_0_4_251
*1324 FILLER_0_4_253
*1325 FILLER_0_4_265
*1326 FILLER_0_4_27
*1327 FILLER_0_4_277
*1328 FILLER_0_4_289
*1329 FILLER_0_4_29
*1330 FILLER_0_4_3
*1331 FILLER_0_4_301
*1332 FILLER_0_4_307
*1333 FILLER_0_4_309
*1334 FILLER_0_4_321
*1335 FILLER_0_4_333
*1336 FILLER_0_4_345
*1337 FILLER_0_4_41
*1338 FILLER_0_4_53
*1339 FILLER_0_4_65
*1340 FILLER_0_4_77
*1341 FILLER_0_4_83
*1342 FILLER_0_4_85
*1343 FILLER_0_4_97
*1344 FILLER_0_5_105
*1345 FILLER_0_5_111
*1346 FILLER_0_5_113
*1347 FILLER_0_5_125
*1348 FILLER_0_5_137
*1349 FILLER_0_5_149
*1350 FILLER_0_5_15
*1351 FILLER_0_5_161
*1352 FILLER_0_5_167
*1353 FILLER_0_5_169
*1354 FILLER_0_5_181
*1355 FILLER_0_5_193
*1356 FILLER_0_5_205
*1357 FILLER_0_5_217
*1358 FILLER_0_5_223
*1359 FILLER_0_5_225
*1360 FILLER_0_5_237
*1361 FILLER_0_5_249
*1362 FILLER_0_5_261
*1363 FILLER_0_5_27
*1364 FILLER_0_5_273
*1365 FILLER_0_5_279
*1366 FILLER_0_5_281
*1367 FILLER_0_5_293
*1368 FILLER_0_5_3
*1369 FILLER_0_5_305
*1370 FILLER_0_5_317
*1371 FILLER_0_5_329
*1372 FILLER_0_5_335
*1373 FILLER_0_5_337
*1374 FILLER_0_5_349
*1375 FILLER_0_5_39
*1376 FILLER_0_5_51
*1377 FILLER_0_5_55
*1378 FILLER_0_5_57
*1379 FILLER_0_5_69
*1380 FILLER_0_5_81
*1381 FILLER_0_5_93
*1382 FILLER_0_6_109
*1383 FILLER_0_6_121
*1384 FILLER_0_6_133
*1385 FILLER_0_6_139
*1386 FILLER_0_6_141
*1387 FILLER_0_6_15
*1388 FILLER_0_6_153
*1389 FILLER_0_6_165
*1390 FILLER_0_6_177
*1391 FILLER_0_6_189
*1392 FILLER_0_6_195
*1393 FILLER_0_6_197
*1394 FILLER_0_6_209
*1395 FILLER_0_6_221
*1396 FILLER_0_6_233
*1397 FILLER_0_6_245
*1398 FILLER_0_6_251
*1399 FILLER_0_6_253
*1400 FILLER_0_6_265
*1401 FILLER_0_6_27
*1402 FILLER_0_6_277
*1403 FILLER_0_6_289
*1404 FILLER_0_6_29
*1405 FILLER_0_6_3
*1406 FILLER_0_6_301
*1407 FILLER_0_6_307
*1408 FILLER_0_6_309
*1409 FILLER_0_6_321
*1410 FILLER_0_6_333
*1411 FILLER_0_6_345
*1412 FILLER_0_6_41
*1413 FILLER_0_6_53
*1414 FILLER_0_6_65
*1415 FILLER_0_6_77
*1416 FILLER_0_6_83
*1417 FILLER_0_6_85
*1418 FILLER_0_6_97
*1419 FILLER_0_7_105
*1420 FILLER_0_7_111
*1421 FILLER_0_7_113
*1422 FILLER_0_7_125
*1423 FILLER_0_7_137
*1424 FILLER_0_7_149
*1425 FILLER_0_7_15
*1426 FILLER_0_7_161
*1427 FILLER_0_7_167
*1428 FILLER_0_7_169
*1429 FILLER_0_7_181
*1430 FILLER_0_7_193
*1431 FILLER_0_7_205
*1432 FILLER_0_7_217
*1433 FILLER_0_7_223
*1434 FILLER_0_7_225
*1435 FILLER_0_7_237
*1436 FILLER_0_7_249
*1437 FILLER_0_7_261
*1438 FILLER_0_7_27
*1439 FILLER_0_7_273
*1440 FILLER_0_7_279
*1441 FILLER_0_7_281
*1442 FILLER_0_7_293
*1443 FILLER_0_7_3
*1444 FILLER_0_7_305
*1445 FILLER_0_7_317
*1446 FILLER_0_7_329
*1447 FILLER_0_7_335
*1448 FILLER_0_7_337
*1449 FILLER_0_7_349
*1450 FILLER_0_7_39
*1451 FILLER_0_7_51
*1452 FILLER_0_7_55
*1453 FILLER_0_7_57
*1454 FILLER_0_7_69
*1455 FILLER_0_7_81
*1456 FILLER_0_7_93
*1457 FILLER_0_8_109
*1458 FILLER_0_8_121
*1459 FILLER_0_8_133