*SPEF "ieee 1481-1999"
*DESIGN "tt_um_minipit_stevej"
*DATE "11:11:11 Fri 11 11, 1111"
*VENDOR "OpenRCX"
*PROGRAM "Parallel Extraction"
*VERSION "1.0"
*DESIGN_FLOW "NAME_SCOPE LOCAL" "PIN_CAP NONE"
*DIVIDER /
*DELIMITER :
*BUS_DELIMITER []
*T_UNIT 1 NS
*C_UNIT 1 PF
*R_UNIT 1 OHM
*L_UNIT 1 HENRY

*NAME_MAP
*3 clk
*4 ena
*5 rst_n
*6 ui_in[0]
*7 ui_in[1]
*8 ui_in[2]
*9 ui_in[3]
*10 ui_in[4]
*11 ui_in[5]
*12 ui_in[6]
*13 ui_in[7]
*14 uio_in[0]
*15 uio_in[1]
*16 uio_in[2]
*17 uio_in[3]
*18 uio_in[4]
*19 uio_in[5]
*20 uio_in[6]
*21 uio_in[7]
*22 net13
*23 net14
*24 net15
*25 net16
*26 net29
*27 net30
*28 net31
*29 net32
*30 uio_out[0]
*31 net17
*32 net18
*33 net19
*34 net20
*35 net21
*36 net22
*37 net23
*38 net24
*39 net25
*40 net26
*41 uo_out[3]
*42 net27
*43 net28
*44 uo_out[6]
*45 uo_out[7]
*46 _000_
*47 _001_
*48 _002_
*49 _003_
*50 _004_
*51 _005_
*52 _006_
*53 _007_
*54 _008_
*55 _009_
*56 _010_
*57 _011_
*58 _012_
*59 _013_
*60 _014_
*61 _015_
*62 _016_
*63 _017_
*64 _018_
*65 _019_
*66 _020_
*67 _021_
*68 _022_
*69 _023_
*70 _024_
*71 _025_
*72 _026_
*73 _027_
*74 _028_
*75 _029_
*76 _030_
*77 _031_
*78 _032_
*79 _033_
*80 _034_
*81 _035_
*82 _036_
*83 _037_
*84 _038_
*85 _039_
*86 _040_
*87 _041_
*88 _042_
*89 _043_
*90 _044_
*91 _045_
*92 _046_
*93 _047_
*94 _048_
*95 _049_
*96 _050_
*97 _051_
*98 _052_
*99 _053_
*100 _054_
*101 _055_
*102 _056_
*103 _057_
*104 _058_
*105 _059_
*106 _060_
*107 _061_
*108 _062_
*109 _063_
*110 _064_
*111 _065_
*112 _066_
*113 _067_
*114 _068_
*115 _069_
*116 _070_
*117 _071_
*118 _072_
*119 _073_
*120 _074_
*121 _075_
*122 _076_
*123 _077_
*124 _078_
*125 _079_
*126 _080_
*127 _081_
*128 _082_
*129 _083_
*130 _084_
*131 _085_
*132 _086_
*133 _087_
*134 _088_
*135 _089_
*136 _090_
*137 _091_
*138 _092_
*139 _093_
*140 _094_
*141 _095_
*142 _096_
*143 _097_
*144 _098_
*145 _099_
*146 _100_
*147 _101_
*148 _102_
*149 _103_
*150 _104_
*151 _105_
*152 _106_
*153 _107_
*154 _108_
*155 _109_
*156 _110_
*157 _111_
*158 _112_
*159 _113_
*160 _114_
*161 _115_
*162 _116_
*163 _117_
*164 _118_
*165 _119_
*166 _120_
*167 _121_
*168 _122_
*169 _123_
*170 _124_
*171 _125_
*172 _126_
*173 _127_
*174 _128_
*175 _129_
*176 _130_
*177 _131_
*178 _132_
*179 _133_
*180 _134_
*181 _135_
*182 _136_
*183 _137_
*184 _138_
*185 _139_
*186 _140_
*187 _141_
*188 _142_
*189 _143_
*190 _144_
*191 _145_
*192 _146_
*193 _147_
*194 _148_
*195 _149_
*196 _150_
*197 _151_
*198 _152_
*199 _153_
*200 _154_
*201 _155_
*202 _156_
*203 _157_
*204 _158_
*205 _159_
*206 _160_
*207 _161_
*208 _162_
*209 _163_
*210 _164_
*211 _165_
*212 _166_
*213 _167_
*214 _168_
*215 _169_
*216 _170_
*217 _171_
*218 _172_
*219 _173_
*220 _174_
*221 _175_
*222 _176_
*223 _177_
*224 _178_
*225 _179_
*226 _180_
*227 _181_
*228 _182_
*229 _183_
*230 _184_
*231 _185_
*232 _186_
*233 _187_
*234 _188_
*235 _189_
*236 _190_
*237 _191_
*238 _192_
*239 _193_
*240 _194_
*241 _195_
*242 _196_
*243 _197_
*244 _198_
*245 _199_
*246 _200_
*247 _201_
*248 _202_
*249 _203_
*250 _204_
*251 _205_
*252 _206_
*253 _207_
*254 _208_
*255 _209_
*256 _210_
*257 _211_
*258 _212_
*259 _213_
*260 _214_
*261 _215_
*262 _216_
*263 clknet_0_clk
*264 clknet_2_0__leaf_clk
*265 clknet_2_1__leaf_clk
*266 clknet_2_2__leaf_clk
*267 clknet_2_3__leaf_clk
*268 counter\[0\]
*269 counter\[10\]
*270 counter\[11\]
*271 counter\[12\]
*272 counter\[13\]
*273 counter\[14\]
*274 counter\[15\]
*275 counter\[1\]
*276 counter\[2\]
*277 counter\[3\]
*278 counter\[4\]
*279 counter\[5\]
*280 counter\[6\]
*281 counter\[7\]
*282 counter\[8\]
*283 counter\[9\]
*284 counter_set
*285 current_count\[0\]
*286 current_count\[10\]
*287 current_count\[11\]
*288 current_count\[12\]
*289 current_count\[13\]
*290 current_count\[14\]
*291 current_count\[15\]
*292 current_count\[1\]
*293 current_count\[2\]
*294 current_count\[3\]
*295 current_count\[4\]
*296 current_count\[5\]
*297 current_count\[6\]
*298 current_count\[7\]
*299 current_count\[8\]
*300 current_count\[9\]
*301 divider_count\[0\]
*302 divider_count\[1\]
*303 divider_count\[2\]
*304 divider_count\[3\]
*305 divider_count\[4\]
*306 divider_count\[5\]
*307 divider_count\[6\]
*308 divider_count\[7\]
*309 divider_on
*310 interrupting
*311 net1
*312 net10
*313 net11
*314 net12
*315 net2
*316 net3
*317 net33
*318 net34
*319 net35
*320 net36
*321 net37
*322 net38
*323 net39
*324 net4
*325 net40
*326 net41
*327 net42
*328 net43
*329 net44
*330 net45
*331 net46
*332 net47
*333 net48
*334 net49
*335 net5
*336 net50
*337 net51
*338 net52
*339 net53
*340 net54
*341 net55
*342 net56
*343 net57
*344 net58
*345 net59
*346 net6
*347 net60
*348 net61
*349 net62
*350 net63
*351 net64
*352 net65
*353 net66
*354 net7
*355 net8
*356 net9
*357 repeating
*358 temp_counter\[0\]
*359 temp_counter\[1\]
*360 temp_counter\[2\]
*361 temp_counter\[3\]
*362 temp_counter\[4\]
*363 temp_counter\[5\]
*364 temp_counter\[6\]
*365 temp_counter\[7\]
*366 FILLER_0_0_109
*367 FILLER_0_0_113
*368 FILLER_0_0_125
*369 FILLER_0_0_137
*370 FILLER_0_0_141
*371 FILLER_0_0_15
*372 FILLER_0_0_153
*373 FILLER_0_0_165
*374 FILLER_0_0_169
*375 FILLER_0_0_181
*376 FILLER_0_0_193
*377 FILLER_0_0_197
*378 FILLER_0_0_209
*379 FILLER_0_0_221
*380 FILLER_0_0_225
*381 FILLER_0_0_237
*382 FILLER_0_0_249
*383 FILLER_0_0_253
*384 FILLER_0_0_265
*385 FILLER_0_0_27
*386 FILLER_0_0_277
*387 FILLER_0_0_281
*388 FILLER_0_0_29
*389 FILLER_0_0_293
*390 FILLER_0_0_3
*391 FILLER_0_0_305
*392 FILLER_0_0_309
*393 FILLER_0_0_321
*394 FILLER_0_0_333
*395 FILLER_0_0_337
*396 FILLER_0_0_349
*397 FILLER_0_0_41
*398 FILLER_0_0_53
*399 FILLER_0_0_57
*400 FILLER_0_0_69
*401 FILLER_0_0_81
*402 FILLER_0_0_85
*403 FILLER_0_0_97
*404 FILLER_0_10_109
*405 FILLER_0_10_121
*406 FILLER_0_10_133
*407 FILLER_0_10_139
*408 FILLER_0_10_141
*409 FILLER_0_10_15
*410 FILLER_0_10_153
*411 FILLER_0_10_165
*412 FILLER_0_10_177
*413 FILLER_0_10_189
*414 FILLER_0_10_195
*415 FILLER_0_10_197
*416 FILLER_0_10_209
*417 FILLER_0_10_221
*418 FILLER_0_10_233
*419 FILLER_0_10_245
*420 FILLER_0_10_251
*421 FILLER_0_10_253
*422 FILLER_0_10_265
*423 FILLER_0_10_27
*424 FILLER_0_10_277
*425 FILLER_0_10_289
*426 FILLER_0_10_29
*427 FILLER_0_10_3
*428 FILLER_0_10_301
*429 FILLER_0_10_307
*430 FILLER_0_10_309
*431 FILLER_0_10_321
*432 FILLER_0_10_333
*433 FILLER_0_10_345
*434 FILLER_0_10_41
*435 FILLER_0_10_53
*436 FILLER_0_10_65
*437 FILLER_0_10_77
*438 FILLER_0_10_83
*439 FILLER_0_10_85
*440 FILLER_0_10_97
*441 FILLER_0_11_105
*442 FILLER_0_11_111
*443 FILLER_0_11_113
*444 FILLER_0_11_125
*445 FILLER_0_11_137
*446 FILLER_0_11_149
*447 FILLER_0_11_15
*448 FILLER_0_11_161
*449 FILLER_0_11_167
*450 FILLER_0_11_169
*451 FILLER_0_11_181
*452 FILLER_0_11_193
*453 FILLER_0_11_205
*454 FILLER_0_11_217
*455 FILLER_0_11_223
*456 FILLER_0_11_225
*457 FILLER_0_11_237
*458 FILLER_0_11_249
*459 FILLER_0_11_261
*460 FILLER_0_11_27
*461 FILLER_0_11_273
*462 FILLER_0_11_279
*463 FILLER_0_11_281
*464 FILLER_0_11_293
*465 FILLER_0_11_3
*466 FILLER_0_11_305
*467 FILLER_0_11_317
*468 FILLER_0_11_329
*469 FILLER_0_11_335
*470 FILLER_0_11_337
*471 FILLER_0_11_349
*472 FILLER_0_11_39
*473 FILLER_0_11_51
*474 FILLER_0_11_55
*475 FILLER_0_11_57
*476 FILLER_0_11_69
*477 FILLER_0_11_81
*478 FILLER_0_11_93
*479 FILLER_0_12_109
*480 FILLER_0_12_121
*481 FILLER_0_12_133
*482 FILLER_0_12_139
*483 FILLER_0_12_141
*484 FILLER_0_12_15
*485 FILLER_0_12_153
*486 FILLER_0_12_165
*487 FILLER_0_12_177
*488 FILLER_0_12_189
*489 FILLER_0_12_195
*490 FILLER_0_12_197
*491 FILLER_0_12_209
*492 FILLER_0_12_221
*493 FILLER_0_12_233
*494 FILLER_0_12_245
*495 FILLER_0_12_251
*496 FILLER_0_12_253
*497 FILLER_0_12_265
*498 FILLER_0_12_27
*499 FILLER_0_12_277
*500 FILLER_0_12_289
*501 FILLER_0_12_29
*502 FILLER_0_12_3
*503 FILLER_0_12_301
*504 FILLER_0_12_307
*505 FILLER_0_12_309
*506 FILLER_0_12_321
*507 FILLER_0_12_333
*508 FILLER_0_12_345
*509 FILLER_0_12_41
*510 FILLER_0_12_53
*511 FILLER_0_12_65
*512 FILLER_0_12_77
*513 FILLER_0_12_83
*514 FILLER_0_12_85
*515 FILLER_0_12_97
*516 FILLER_0_13_105
*517 FILLER_0_13_111
*518 FILLER_0_13_113
*519 FILLER_0_13_125
*520 FILLER_0_13_137
*521 FILLER_0_13_149
*522 FILLER_0_13_15
*523 FILLER_0_13_161
*524 FILLER_0_13_167
*525 FILLER_0_13_169
*526 FILLER_0_13_181
*527 FILLER_0_13_193
*528 FILLER_0_13_205
*529 FILLER_0_13_217
*530 FILLER_0_13_223
*531 FILLER_0_13_225
*532 FILLER_0_13_237
*533 FILLER_0_13_249
*534 FILLER_0_13_261
*535 FILLER_0_13_27
*536 FILLER_0_13_273
*537 FILLER_0_13_279
*538 FILLER_0_13_281
*539 FILLER_0_13_293
*540 FILLER_0_13_3
*541 FILLER_0_13_305
*542 FILLER_0_13_317
*543 FILLER_0_13_329
*544 FILLER_0_13_335
*545 FILLER_0_13_337
*546 FILLER_0_13_349
*547 FILLER_0_13_39
*548 FILLER_0_13_51
*549 FILLER_0_13_55
*550 FILLER_0_13_57
*551 FILLER_0_13_69
*552 FILLER_0_13_81
*553 FILLER_0_13_93
*554 FILLER_0_14_109
*555 FILLER_0_14_121
*556 FILLER_0_14_133
*557 FILLER_0_14_139
*558 FILLER_0_14_141
*559 FILLER_0_14_15
*560 FILLER_0_14_153
*561 FILLER_0_14_165
*562 FILLER_0_14_177
*563 FILLER_0_14_189
*564 FILLER_0_14_195
*565 FILLER_0_14_197
*566 FILLER_0_14_209
*567 FILLER_0_14_221
*568 FILLER_0_14_233
*569 FILLER_0_14_245
*570 FILLER_0_14_251
*571 FILLER_0_14_253
*572 FILLER_0_14_265
*573 FILLER_0_14_27
*574 FILLER_0_14_277
*575 FILLER_0_14_289
*576 FILLER_0_14_29
*577 FILLER_0_14_3
*578 FILLER_0_14_301
*579 FILLER_0_14_307
*580 FILLER_0_14_309
*581 FILLER_0_14_321
*582 FILLER_0_14_333
*583 FILLER_0_14_345
*584 FILLER_0_14_41
*585 FILLER_0_14_53
*586 FILLER_0_14_65
*587 FILLER_0_14_77
*588 FILLER_0_14_83
*589 FILLER_0_14_85
*590 FILLER_0_14_97
*591 FILLER_0_15_105
*592 FILLER_0_15_111
*593 FILLER_0_15_113
*594 FILLER_0_15_125
*595 FILLER_0_15_137
*596 FILLER_0_15_149
*597 FILLER_0_15_15
*598 FILLER_0_15_161
*599 FILLER_0_15_167
*600 FILLER_0_15_169
*601 FILLER_0_15_181
*602 FILLER_0_15_193
*603 FILLER_0_15_205
*604 FILLER_0_15_217
*605 FILLER_0_15_223
*606 FILLER_0_15_225
*607 FILLER_0_15_237
*608 FILLER_0_15_249
*609 FILLER_0_15_261
*610 FILLER_0_15_27
*611 FILLER_0_15_273
*612 FILLER_0_15_279
*613 FILLER_0_15_281
*614 FILLER_0_15_293
*615 FILLER_0_15_3
*616 FILLER_0_15_305
*617 FILLER_0_15_317
*618 FILLER_0_15_329
*619 FILLER_0_15_335
*620 FILLER_0_15_337
*621 FILLER_0_15_349
*622 FILLER_0_15_39
*623 FILLER_0_15_51
*624 FILLER_0_15_55
*625 FILLER_0_15_57
*626 FILLER_0_15_69
*627 FILLER_0_15_81
*628 FILLER_0_15_93
*629 FILLER_0_16_109
*630 FILLER_0_16_121
*631 FILLER_0_16_133
*632 FILLER_0_16_139
*633 FILLER_0_16_141
*634 FILLER_0_16_15
*635 FILLER_0_16_153
*636 FILLER_0_16_165
*637 FILLER_0_16_177
*638 FILLER_0_16_189
*639 FILLER_0_16_195
*640 FILLER_0_16_197
*641 FILLER_0_16_209
*642 FILLER_0_16_221
*643 FILLER_0_16_233
*644 FILLER_0_16_245
*645 FILLER_0_16_251
*646 FILLER_0_16_253
*647 FILLER_0_16_265
*648 FILLER_0_16_27
*649 FILLER_0_16_277
*650 FILLER_0_16_289
*651 FILLER_0_16_29
*652 FILLER_0_16_3
*653 FILLER_0_16_301
*654 FILLER_0_16_307
*655 FILLER_0_16_309
*656 FILLER_0_16_321
*657 FILLER_0_16_333
*658 FILLER_0_16_345
*659 FILLER_0_16_41
*660 FILLER_0_16_53
*661 FILLER_0_16_65
*662 FILLER_0_16_77
*663 FILLER_0_16_83
*664 FILLER_0_16_85
*665 FILLER_0_16_97
*666 FILLER_0_17_105
*667 FILLER_0_17_111
*668 FILLER_0_17_113
*669 FILLER_0_17_125
*670 FILLER_0_17_137
*671 FILLER_0_17_149
*672 FILLER_0_17_15
*673 FILLER_0_17_161
*674 FILLER_0_17_167
*675 FILLER_0_17_169
*676 FILLER_0_17_181
*677 FILLER_0_17_193
*678 FILLER_0_17_205
*679 FILLER_0_17_217
*680 FILLER_0_17_223
*681 FILLER_0_17_225
*682 FILLER_0_17_237
*683 FILLER_0_17_249
*684 FILLER_0_17_261
*685 FILLER_0_17_27
*686 FILLER_0_17_273
*687 FILLER_0_17_279
*688 FILLER_0_17_281
*689 FILLER_0_17_293
*690 FILLER_0_17_3
*691 FILLER_0_17_305
*692 FILLER_0_17_317
*693 FILLER_0_17_329
*694 FILLER_0_17_335
*695 FILLER_0_17_337
*696 FILLER_0_17_349
*697 FILLER_0_17_39
*698 FILLER_0_17_51
*699 FILLER_0_17_55
*700 FILLER_0_17_57
*701 FILLER_0_17_69
*702 FILLER_0_17_81
*703 FILLER_0_17_93
*704 FILLER_0_18_109
*705 FILLER_0_18_121
*706 FILLER_0_18_133
*707 FILLER_0_18_139
*708 FILLER_0_18_141
*709 FILLER_0_18_15
*710 FILLER_0_18_153
*711 FILLER_0_18_165
*712 FILLER_0_18_177
*713 FILLER_0_18_189
*714 FILLER_0_18_195
*715 FILLER_0_18_197
*716 FILLER_0_18_209
*717 FILLER_0_18_221
*718 FILLER_0_18_233
*719 FILLER_0_18_245
*720 FILLER_0_18_251
*721 FILLER_0_18_253
*722 FILLER_0_18_265
*723 FILLER_0_18_27
*724 FILLER_0_18_277
*725 FILLER_0_18_289
*726 FILLER_0_18_29
*727 FILLER_0_18_3
*728 FILLER_0_18_301
*729 FILLER_0_18_307
*730 FILLER_0_18_309
*731 FILLER_0_18_321
*732 FILLER_0_18_333
*733 FILLER_0_18_345
*734 FILLER_0_18_41
*735 FILLER_0_18_53
*736 FILLER_0_18_65
*737 FILLER_0_18_77
*738 FILLER_0_18_83
*739 FILLER_0_18_85
*740 FILLER_0_18_97
*741 FILLER_0_19_105
*742 FILLER_0_19_111
*743 FILLER_0_19_113
*744 FILLER_0_19_125
*745 FILLER_0_19_137
*746 FILLER_0_19_149
*747 FILLER_0_19_15
*748 FILLER_0_19_161
*749 FILLER_0_19_167
*750 FILLER_0_19_169
*751 FILLER_0_19_181
*752 FILLER_0_19_193
*753 FILLER_0_19_205
*754 FILLER_0_19_217
*755 FILLER_0_19_223
*756 FILLER_0_19_225
*757 FILLER_0_19_237
*758 FILLER_0_19_249
*759 FILLER_0_19_261
*760 FILLER_0_19_27
*761 FILLER_0_19_273
*762 FILLER_0_19_279
*763 FILLER_0_19_281
*764 FILLER_0_19_293
*765 FILLER_0_19_3
*766 FILLER_0_19_305
*767 FILLER_0_19_317
*768 FILLER_0_19_329
*769 FILLER_0_19_335
*770 FILLER_0_19_337
*771 FILLER_0_19_349
*772 FILLER_0_19_39
*773 FILLER_0_19_51
*774 FILLER_0_19_55
*775 FILLER_0_19_57
*776 FILLER_0_19_69
*777 FILLER_0_19_81
*778 FILLER_0_19_93
*779 FILLER_0_1_105
*780 FILLER_0_1_111
*781 FILLER_0_1_113
*782 FILLER_0_1_125
*783 FILLER_0_1_137
*784 FILLER_0_1_149
*785 FILLER_0_1_15
*786 FILLER_0_1_161
*787 FILLER_0_1_167
*788 FILLER_0_1_169
*789 FILLER_0_1_181
*790 FILLER_0_1_193
*791 FILLER_0_1_205
*792 FILLER_0_1_217
*793 FILLER_0_1_223
*794 FILLER_0_1_225
*795 FILLER_0_1_237
*796 FILLER_0_1_249
*797 FILLER_0_1_261
*798 FILLER_0_1_27
*799 FILLER_0_1_273
*800 FILLER_0_1_279
*801 FILLER_0_1_281
*802 FILLER_0_1_293
*803 FILLER_0_1_3
*804 FILLER_0_1_305
*805 FILLER_0_1_317
*806 FILLER_0_1_329
*807 FILLER_0_1_335
*808 FILLER_0_1_337
*809 FILLER_0_1_349
*810 FILLER_0_1_39
*811 FILLER_0_1_51
*812 FILLER_0_1_55
*813 FILLER_0_1_57
*814 FILLER_0_1_69
*815 FILLER_0_1_81
*816 FILLER_0_1_93
*817 FILLER_0_20_109
*818 FILLER_0_20_121
*819 FILLER_0_20_133
*820 FILLER_0_20_139
*821 FILLER_0_20_141
*822 FILLER_0_20_15
*823 FILLER_0_20_153
*824 FILLER_0_20_165
*825 FILLER_0_20_177
*826 FILLER_0_20_189
*827 FILLER_0_20_195
*828 FILLER_0_20_197
*829 FILLER_0_20_209
*830 FILLER_0_20_221
*831 FILLER_0_20_233
*832 FILLER_0_20_245
*833 FILLER_0_20_251
*834 FILLER_0_20_253
*835 FILLER_0_20_265
*836 FILLER_0_20_27
*837 FILLER_0_20_277
*838 FILLER_0_20_289
*839 FILLER_0_20_29
*840 FILLER_0_20_3
*841 FILLER_0_20_301
*842 FILLER_0_20_307
*843 FILLER_0_20_309
*844 FILLER_0_20_321
*845 FILLER_0_20_333
*846 FILLER_0_20_345
*847 FILLER_0_20_41
*848 FILLER_0_20_53
*849 FILLER_0_20_65
*850 FILLER_0_20_77
*851 FILLER_0_20_83
*852 FILLER_0_20_85
*853 FILLER_0_20_97
*854 FILLER_0_21_105
*855 FILLER_0_21_111
*856 FILLER_0_21_113
*857 FILLER_0_21_125
*858 FILLER_0_21_137
*859 FILLER_0_21_149
*860 FILLER_0_21_15
*861 FILLER_0_21_161
*862 FILLER_0_21_167
*863 FILLER_0_21_169
*864 FILLER_0_21_181
*865 FILLER_0_21_193
*866 FILLER_0_21_205
*867 FILLER_0_21_217
*868 FILLER_0_21_223
*869 FILLER_0_21_225
*870 FILLER_0_21_237
*871 FILLER_0_21_243
*872 FILLER_0_21_255
*873 FILLER_0_21_267
*874 FILLER_0_21_27
*875 FILLER_0_21_279
*876 FILLER_0_21_281
*877 FILLER_0_21_293
*878 FILLER_0_21_3
*879 FILLER_0_21_305
*880 FILLER_0_21_317
*881 FILLER_0_21_329
*882 FILLER_0_21_335
*883 FILLER_0_21_337
*884 FILLER_0_21_349
*885 FILLER_0_21_39
*886 FILLER_0_21_51
*887 FILLER_0_21_55
*888 FILLER_0_21_57
*889 FILLER_0_21_69
*890 FILLER_0_21_81
*891 FILLER_0_21_93
*892 FILLER_0_22_109
*893 FILLER_0_22_121
*894 FILLER_0_22_133
*895 FILLER_0_22_139
*896 FILLER_0_22_141
*897 FILLER_0_22_15
*898 FILLER_0_22_153
*899 FILLER_0_22_165
*900 FILLER_0_22_177
*901 FILLER_0_22_189
*902 FILLER_0_22_195
*903 FILLER_0_22_197
*904 FILLER_0_22_209
*905 FILLER_0_22_221
*906 FILLER_0_22_233
*907 FILLER_0_22_256
*908 FILLER_0_22_268
*909 FILLER_0_22_27
*910 FILLER_0_22_280
*911 FILLER_0_22_29
*912 FILLER_0_22_299
*913 FILLER_0_22_3
*914 FILLER_0_22_307
*915 FILLER_0_22_309
*916 FILLER_0_22_321
*917 FILLER_0_22_333
*918 FILLER_0_22_345
*919 FILLER_0_22_41
*920 FILLER_0_22_53
*921 FILLER_0_22_65
*922 FILLER_0_22_77
*923 FILLER_0_22_83
*924 FILLER_0_22_85
*925 FILLER_0_22_97
*926 FILLER_0_23_105
*927 FILLER_0_23_111
*928 FILLER_0_23_113
*929 FILLER_0_23_125
*930 FILLER_0_23_137
*931 FILLER_0_23_149
*932 FILLER_0_23_15
*933 FILLER_0_23_161
*934 FILLER_0_23_167
*935 FILLER_0_23_185
*936 FILLER_0_23_189
*937 FILLER_0_23_210
*938 FILLER_0_23_221
*939 FILLER_0_23_248
*940 FILLER_0_23_27
*941 FILLER_0_23_274
*942 FILLER_0_23_294
*943 FILLER_0_23_3
*944 FILLER_0_23_300
*945 FILLER_0_23_312
*946 FILLER_0_23_324
*947 FILLER_0_23_337
*948 FILLER_0_23_349
*949 FILLER_0_23_39
*950 FILLER_0_23_51
*951 FILLER_0_23_55
*952 FILLER_0_23_57
*953 FILLER_0_23_69
*954 FILLER_0_23_81
*955 FILLER_0_23_93
*956 FILLER_0_24_109
*957 FILLER_0_24_121
*958 FILLER_0_24_133
*959 FILLER_0_24_139
*960 FILLER_0_24_141
*961 FILLER_0_24_15
*962 FILLER_0_24_162
*963 FILLER_0_24_173
*964 FILLER_0_24_181
*965 FILLER_0_24_229
*966 FILLER_0_24_237
*967 FILLER_0_24_248
*968 FILLER_0_24_253
*969 FILLER_0_24_258
*970 FILLER_0_24_27
*971 FILLER_0_24_280
*972 FILLER_0_24_29
*973 FILLER_0_24_3
*974 FILLER_0_24_309
*975 FILLER_0_24_315
*976 FILLER_0_24_320
*977 FILLER_0_24_328
*978 FILLER_0_24_350
*979 FILLER_0_24_41
*980 FILLER_0_24_53
*981 FILLER_0_24_65
*982 FILLER_0_24_77
*983 FILLER_0_24_83
*984 FILLER_0_24_85
*985 FILLER_0_24_97
*986 FILLER_0_25_105
*987 FILLER_0_25_111
*988 FILLER_0_25_113
*989 FILLER_0_25_125
*990 FILLER_0_25_137
*991 FILLER_0_25_149
*992 FILLER_0_25_15
*993 FILLER_0_25_161
*994 FILLER_0_25_185
*995 FILLER_0_25_193
*996 FILLER_0_25_202
*997 FILLER_0_25_208
*998 FILLER_0_25_219
*999 FILLER_0_25_223
*1000 FILLER_0_25_225
*1001 FILLER_0_25_237
*1002 FILLER_0_25_246
*1003 FILLER_0_25_252
*1004 FILLER_0_25_27
*1005 FILLER_0_25_277
*1006 FILLER_0_25_281
*1007 FILLER_0_25_297
*1008 FILLER_0_25_3
*1009 FILLER_0_25_306
*1010 FILLER_0_25_314
*1011 FILLER_0_25_327
*1012 FILLER_0_25_335
*1013 FILLER_0_25_345
*1014 FILLER_0_25_39
*1015 FILLER_0_25_51
*1016 FILLER_0_25_55
*1017 FILLER_0_25_57
*1018 FILLER_0_25_69
*1019 FILLER_0_25_81
*1020 FILLER_0_25_93
*1021 FILLER_0_26_109
*1022 FILLER_0_26_129
*1023 FILLER_0_26_137
*1024 FILLER_0_26_141
*1025 FILLER_0_26_15
*1026 FILLER_0_26_153
*1027 FILLER_0_26_165
*1028 FILLER_0_26_177
*1029 FILLER_0_26_188
*1030 FILLER_0_26_240
*1031 FILLER_0_26_249
*1032 FILLER_0_26_253
*1033 FILLER_0_26_266
*1034 FILLER_0_26_27
*1035 FILLER_0_26_275
*1036 FILLER_0_26_287
*1037 FILLER_0_26_29
*1038 FILLER_0_26_3
*1039 FILLER_0_26_307
*1040 FILLER_0_26_309
*1041 FILLER_0_26_315
*1042 FILLER_0_26_331
*1043 FILLER_0_26_350
*1044 FILLER_0_26_41
*1045 FILLER_0_26_53
*1046 FILLER_0_26_65
*1047 FILLER_0_26_77
*1048 FILLER_0_26_83
*1049 FILLER_0_26_85
*1050 FILLER_0_26_97
*1051 FILLER_0_27_101
*1052 FILLER_0_27_107
*1053 FILLER_0_27_111
*1054 FILLER_0_27_113
*1055 FILLER_0_27_117
*1056 FILLER_0_27_121
*1057 FILLER_0_27_133
*1058 FILLER_0_27_15
*1059 FILLER_0_27_150
*1060 FILLER_0_27_159
*1061 FILLER_0_27_167
*1062 FILLER_0_27_181
*1063 FILLER_0_27_193
*1064 FILLER_0_27_201
*1065 FILLER_0_27_210
*1066 FILLER_0_27_222
*1067 FILLER_0_27_225
*1068 FILLER_0_27_242
*1069 FILLER_0_27_254
*1070 FILLER_0_27_264
*1071 FILLER_0_27_27
*1072 FILLER_0_27_272
*1073 FILLER_0_27_286
*1074 FILLER_0_27_294
*1075 FILLER_0_27_3
*1076 FILLER_0_27_326
*1077 FILLER_0_27_334
*1078 FILLER_0_27_39
*1079 FILLER_0_27_51
*1080 FILLER_0_27_55
*1081 FILLER_0_27_57
*1082 FILLER_0_27_69
*1083 FILLER_0_27_81
*1084 FILLER_0_27_89
*1085 FILLER_0_27_93
*1086 FILLER_0_28_115
*1087 FILLER_0_28_133
*1088 FILLER_0_28_15
*1089 FILLER_0_28_168
*1090 FILLER_0_28_176
*1091 FILLER_0_28_191
*1092 FILLER_0_28_195
*1093 FILLER_0_28_197
*1094 FILLER_0_28_205
*1095 FILLER_0_28_231
*1096 FILLER_0_28_239
*1097 FILLER_0_28_253
*1098 FILLER_0_28_269
*1099 FILLER_0_28_27
*1100 FILLER_0_28_274
*1101 FILLER_0_28_279
*1102 FILLER_0_28_29
*1103 FILLER_0_28_3
*1104 FILLER_0_28_302
*1105 FILLER_0_28_309
*1106 FILLER_0_28_321
*1107 FILLER_0_28_349
*1108 FILLER_0_28_41
*1109 FILLER_0_28_53
*1110 FILLER_0_28_65
*1111 FILLER_0_28_77
*1112 FILLER_0_28_83
*1113 FILLER_0_28_85
*1114 FILLER_0_29_111
*1115 FILLER_0_29_113
*1116 FILLER_0_29_121
*1117 FILLER_0_29_129
*1118 FILLER_0_29_133
*1119 FILLER_0_29_140
*1120 FILLER_0_29_15
*1121 FILLER_0_29_166
*1122 FILLER_0_29_169
*1123 FILLER_0_29_190
*1124 FILLER_0_29_194
*1125 FILLER_0_29_202
*1126 FILLER_0_29_218
*1127 FILLER_0_29_246
*1128 FILLER_0_29_251
*1129 FILLER_0_29_259
*1130 FILLER_0_29_27
*1131 FILLER_0_29_281
*1132 FILLER_0_29_289
*1133 FILLER_0_29_293
*1134 FILLER_0_29_3
*1135 FILLER_0_29_301
*1136 FILLER_0_29_310
*1137 FILLER_0_29_318
*1138 FILLER_0_29_325
*1139 FILLER_0_29_333
*1140 FILLER_0_29_348
*1141 FILLER_0_29_39
*1142 FILLER_0_29_51
*1143 FILLER_0_29_55
*1144 FILLER_0_29_57
*1145 FILLER_0_29_69
*1146 FILLER_0_29_81
*1147 FILLER_0_29_93
*1148 FILLER_0_29_99
*1149 FILLER_0_2_109
*1150 FILLER_0_2_121
*1151 FILLER_0_2_133
*1152 FILLER_0_2_139
*1153 FILLER_0_2_141
*1154 FILLER_0_2_15
*1155 FILLER_0_2_153
*1156 FILLER_0_2_165
*1157 FILLER_0_2_177
*1158 FILLER_0_2_189
*1159 FILLER_0_2_195
*1160 FILLER_0_2_197
*1161 FILLER_0_2_209
*1162 FILLER_0_2_221
*1163 FILLER_0_2_233
*1164 FILLER_0_2_245
*1165 FILLER_0_2_251
*1166 FILLER_0_2_253
*1167 FILLER_0_2_265
*1168 FILLER_0_2_27
*1169 FILLER_0_2_277
*1170 FILLER_0_2_289
*1171 FILLER_0_2_29
*1172 FILLER_0_2_3
*1173 FILLER_0_2_301
*1174 FILLER_0_2_307
*1175 FILLER_0_2_309
*1176 FILLER_0_2_321
*1177 FILLER_0_2_333
*1178 FILLER_0_2_345
*1179 FILLER_0_2_41
*1180 FILLER_0_2_53
*1181 FILLER_0_2_65
*1182 FILLER_0_2_77
*1183 FILLER_0_2_83
*1184 FILLER_0_2_85
*1185 FILLER_0_2_97
*1186 FILLER_0_30_126
*1187 FILLER_0_30_137
*1188 FILLER_0_30_15
*1189 FILLER_0_30_189
*1190 FILLER_0_30_195
*1191 FILLER_0_30_197
*1192 FILLER_0_30_201
*1193 FILLER_0_30_251
*1194 FILLER_0_30_253
*1195 FILLER_0_30_265
*1196 FILLER_0_30_27
*1197 FILLER_0_30_286
*1198 FILLER_0_30_29
*1199 FILLER_0_30_3
*1200 FILLER_0_30_303
*1201 FILLER_0_30_307
*1202 FILLER_0_30_315
*1203 FILLER_0_30_326
*1204 FILLER_0_30_41
*1205 FILLER_0_30_53
*1206 FILLER_0_30_65
*1207 FILLER_0_30_77
*1208 FILLER_0_30_83
*1209 FILLER_0_30_85
*1210 FILLER_0_30_91
*1211 FILLER_0_31_100
*1212 FILLER_0_31_106
*1213 FILLER_0_31_113
*1214 FILLER_0_31_125
*1215 FILLER_0_31_129
*1216 FILLER_0_31_137
*1217 FILLER_0_31_149
*1218 FILLER_0_31_15
*1219 FILLER_0_31_157
*1220 FILLER_0_31_163
*1221 FILLER_0_31_167
*1222 FILLER_0_31_169
*1223 FILLER_0_31_181
*1224 FILLER_0_31_211
*1225 FILLER_0_31_215
*1226 FILLER_0_31_225
*1227 FILLER_0_31_237
*1228 FILLER_0_31_249
*1229 FILLER_0_31_267
*1230 FILLER_0_31_27
*1231 FILLER_0_31_276
*1232 FILLER_0_31_281
*1233 FILLER_0_31_292
*1234 FILLER_0_31_3
*1235 FILLER_0_31_304
*1236 FILLER_0_31_316
*1237 FILLER_0_31_323
*1238 FILLER_0_31_335
*1239 FILLER_0_31_348
*1240 FILLER_0_31_39
*1241 FILLER_0_31_51
*1242 FILLER_0_31_55
*1243 FILLER_0_31_57
*1244 FILLER_0_31_69
*1245 FILLER_0_31_81
*1246 FILLER_0_31_93
*1247 FILLER_0_32_108
*1248 FILLER_0_32_124
*1249 FILLER_0_32_128
*1250 FILLER_0_32_139
*1251 FILLER_0_32_15
*1252 FILLER_0_32_164
*1253 FILLER_0_32_191
*1254 FILLER_0_32_195
*1255 FILLER_0_32_205
*1256 FILLER_0_32_209
*1257 FILLER_0_32_242
*1258 FILLER_0_32_246
*1259 FILLER_0_32_251
*1260 FILLER_0_32_27
*1261 FILLER_0_32_282
*1262 FILLER_0_32_29
*1263 FILLER_0_32_3
*1264 FILLER_0_32_302
*1265 FILLER_0_32_325
*1266 FILLER_0_32_347
*1267 FILLER_0_32_41
*1268 FILLER_0_32_53
*1269 FILLER_0_32_65
*1270 FILLER_0_32_77
*1271 FILLER_0_32_83
*1272 FILLER_0_32_85
*1273 FILLER_0_32_91
*1274 FILLER_0_33_105
*1275 FILLER_0_33_111
*1276 FILLER_0_33_113
*1277 FILLER_0_33_125
*1278 FILLER_0_33_131
*1279 FILLER_0_33_135
*1280 FILLER_0_33_147
*1281 FILLER_0_33_15
*1282 FILLER_0_33_165
*1283 FILLER_0_33_173
*1284 FILLER_0_33_185
*1285 FILLER_0_33_218
*1286 FILLER_0_33_225
*1287 FILLER_0_33_229
*1288 FILLER_0_33_27
*1289 FILLER_0_33_275
*1290 FILLER_0_33_279
*1291 FILLER_0_33_297
*1292 FILLER_0_33_3
*1293 FILLER_0_33_317
*1294 FILLER_0_33_329
*1295 FILLER_0_33_335
*1296 FILLER_0_33_345
*1297 FILLER_0_33_39
*1298 FILLER_0_33_51
*1299 FILLER_0_33_55
*1300 FILLER_0_33_57
*1301 FILLER_0_33_69
*1302 FILLER_0_33_81
*1303 FILLER_0_33_93
*1304 FILLER_0_34_103
*1305 FILLER_0_34_123
*1306 FILLER_0_34_137
*1307 FILLER_0_34_141
*1308 FILLER_0_34_15
*1309 FILLER_0_34_188
*1310 FILLER_0_34_192
*1311 FILLER_0_34_205
*1312 FILLER_0_34_215
*1313 FILLER_0_34_227
*1314 FILLER_0_34_233
*1315 FILLER_0_34_244
*1316 FILLER_0_34_261
*1317 FILLER_0_34_269
*1318 FILLER_0_34_27
*1319 FILLER_0_34_276
*1320 FILLER_0_34_284
*1321 FILLER_0_34_29
*1322 FILLER_0_34_290
*1323 FILLER_0_34_3
*1324 FILLER_0_34_305
*1325 FILLER_0_34_309
*1326 FILLER_0_34_321
*1327 FILLER_0_34_41
*1328 FILLER_0_34_53
*1329 FILLER_0_34_65
*1330 FILLER_0_34_77
*1331 FILLER_0_34_83
*1332 FILLER_0_34_85
*1333 FILLER_0_34_97
*1334 FILLER_0_35_118
*1335 FILLER_0_35_124
*1336 FILLER_0_35_141
*1337 FILLER_0_35_15
*1338 FILLER_0_35_161
*1339 FILLER_0_35_167
*1340 FILLER_0_35_169
*1341 FILLER_0_35_181
*1342 FILLER_0_35_204
*1343 FILLER_0_35_233
*1344 FILLER_0_35_245
*1345 FILLER_0_35_264
*1346 FILLER_0_35_27
*1347 FILLER_0_35_3
*1348 FILLER_0_35_313
*1349 FILLER_0_35_319
*1350 FILLER_0_35_337
*1351 FILLER_0_35_347
*1352 FILLER_0_35_39
*1353 FILLER_0_35_51
*1354 FILLER_0_35_55
*1355 FILLER_0_35_57
*1356 FILLER_0_35_69
*1357 FILLER_0_35_81
*1358 FILLER_0_35_93
*1359 FILLER_0_36_109
*1360 FILLER_0_36_121
*1361 FILLER_0_36_133
*1362 FILLER_0_36_139
*1363 FILLER_0_36_15
*1364 FILLER_0_36_155
*1365 FILLER_0_36_167
*1366 FILLER_0_36_179
*1367 FILLER_0_36_186
*1368 FILLER_0_36_194
*1369 FILLER_0_36_200
*1370 FILLER_0_36_221
*1371 FILLER_0_36_225
*1372 FILLER_0_36_246
*1373 FILLER_0_36_267
*1374 FILLER_0_36_27
*1375 FILLER_0_36_29
*1376 FILLER_0_36_294
*1377 FILLER_0_36_3
*1378 FILLER_0_36_309
*1379 FILLER_0_36_326
*1380 FILLER_0_36_41
*1381 FILLER_0_36_53
*1382 FILLER_0_36_65
*1383 FILLER_0_36_77
*1384 FILLER_0_36_83
*1385 FILLER_0_36_85
*1386 FILLER_0_36_97
*1387 FILLER_0_37_105
*1388 FILLER_0_37_111
*1389 FILLER_0_37_113
*1390 FILLER_0_37_125
*1391 FILLER_0_37_137
*1392 FILLER_0_37_15
*1393 FILLER_0_37_159
*1394 FILLER_0_37_167
*1395 FILLER_0_37_198
*1396 FILLER_0_37_219
*1397 FILLER_0_37_223
*1398 FILLER_0_37_225
*1399 FILLER_0_37_245
*1400 FILLER_0_37_265
*1401 FILLER_0_37_27
*1402 FILLER_0_37_279
*1403 FILLER_0_37_3
*1404 FILLER_0_37_332
*1405 FILLER_0_37_337
*1406 FILLER_0_37_348
*1407 FILLER_0_37_39
*1408 FILLER_0_37_51
*1409 FILLER_0_37_55
*1410 FILLER_0_37_57
*1411 FILLER_0_37_69
*1412 FILLER_0_37_81
*1413 FILLER_0_37_93
*1414 FILLER_0_38_104
*1415 FILLER_0_38_110
*1416 FILLER_0_38_116
*1417 FILLER_0_38_122
*1418 FILLER_0_38_128
*1419 FILLER_0_38_134
*1420 FILLER_0_38_141
*1421 FILLER_0_38_146
*1422 FILLER_0_38_15
*1423 FILLER_0_38_152
*1424 FILLER_0_38_167
*1425 FILLER_0_38_176
*1426 FILLER_0_38_182
*1427 FILLER_0_38_194
*1428 FILLER_0_38_200
*1429 FILLER_0_38_228
*1430 FILLER_0_38_249
*1431 FILLER_0_38_253
*1432 FILLER_0_38_260
*1433 FILLER_0_38_27
*1434 FILLER_0_38_275
*1435 FILLER_0_38_286
*1436 FILLER_0_38_29
*1437 FILLER_0_38_296
*1438 FILLER_0_38_3
*1439 FILLER_0_38_345
*1440 FILLER_0_38_41
*1441 FILLER_0_38_53
*1442 FILLER_0_38_57
*1443 FILLER_0_38_68
*1444 FILLER_0_38_74
*1445 FILLER_0_38_80
*1446 FILLER_0_38_88
*1447 FILLER_0_38_92
*1448 FILLER_0_38_98
*1449 FILLER_0_3_105
*1450 FILLER_0_3_111
*1451 FILLER_0_3_113
*1452 FILLER_0_3_125
*1453 FILLER_0_3_137
*1454 FILLER_0_3_149
*1455 FILLER_0_3_15
*1456 FILLER_0_3_161
*1457 FILLER_0_3_167
*1458 FILLER_0_3_169
*1459 FILLER_0_3_181
*1460 FILLER_0_3_193
*1461 FILLER_0_3_205
*1462 FILLER_0_3_217
*1463 FILLER_0_3_223
*1464 FILLER_0_3_225
*1465 FILLER_0_3_237
*1466 FILLER_0_3_249
*1467 FILLER_0_3_261
*1468 FILLER_0_3_27
*1469 FILLER_0_3_273
*1470 FILLER_0_3_279
*1471 FILLER_0_3_281
*1472 FILLER_0_3_293
*1473 FILLER_0_3_3
*1474 FILLER_0_3_305
*1475 FILLER_0_3_317
*1476 FILLER_0_3_329
*1477 FILLER_0_3_335
*1478 FILLER_0_3_337
*1479 FILLER_0_3_349
*1480 FILLER_0_3_39
*1481 FILLER_0_3_51
*1482 FILLER_0_3_55
*1483 FILLER_0_3_57
*1484 FILLER_0_3_69
*1485 FILLER_0_3_81
*1486 FILLER_0_3_93
*1487 FILLER_0_4_109
*1488 FILLER_0_4_121
*1489 FILLER_0_4_133
*1490 FILLER_0_4_139
*1491 FILLER_0_4_141
*1492 FILLER_0_4_15
*1493 FILLER_0_4_153
*1494 FILLER_0_4_165
*1495 FILLER_0_4_177
*1496 FILLER_0_4_189
*1497 FILLER_0_4_195
*1498 FILLER_0_4_197
*1499 FILLER_0_4_209
*1500 FILLER_0_4_221
*1501 FILLER_0_4_233
*1502 FILLER_0_4_245
*1503 FILLER_0_4_251
*1504 FILLER_0_4_253
*1505 FILLER_0_4_265
*1506 FILLER_0_4_27
*1507 FILLER_0_4_277
*1508 FILLER_0_4_289
*1509 FILLER_0_4_29
*1510 FILLER_0_4_3
*1511 FILLER_0_4_301
*1512 FILLER_0_4_307
*1513 FILLER_0_4_309
*1514 FILLER_0_4_321
*1515 FILLER_0_4_333
*1516 FILLER_0_4_345
*1517 FILLER_0_4_41
*1518 FILLER_0_4_53
*1519 FILLER_0_4_65
*1520 FILLER_0_4_77
*1521 FILLER_0_4_83
*1522 FILLER_0_4_85
*1523 FILLER_0_4_97
*1524 FILLER_0_5_105
*1525 FILLER_0_5_111
*1526 FILLER_0_5_113
*1527 FILLER_0_5_125
*1528 FILLER_0_5_137
*1529 FILLER_0_5_149
*1530 FILLER_0_5_15
*1531 FILLER_0_5_161
*1532 FILLER_0_5_167
*1533 FILLER_0_5_169
*1534 FILLER_0_5_181
*1535 FILLER_0_5_193
*1536 FILLER_0_5_205
*1537 FILLER_0_5_217
*1538 FILLER_0_5_223
*1539 FILLER_0_5_225
*1540 FILLER_0_5_237
*1541 FILLER_0_5_249
*1542 FILLER_0_5_261
*1543 FILLER_0_5_27
*1544 FILLER_0_5_273
*1545 FILLER_0_5_279
*1546 FILLER_0_5_281
*1547 FILLER_0_5_293
*1548 FILLER_0_5_3
*1549 FILLER_0_5_305
*1550 FILLER_0_5_317
*1551 FILLER_0_5_329
*1552 FILLER_0_5_335
*1553 FILLER_0_5_337
*1554 FILLER_0_5_349
*1555 FILLER_0_5_39
*1556 FILLER_0_5_51
*1557 FILLER_0_5_55
*1558 FILLER_0_5_57
*1559 FILLER_0_5_69
*1560 FILLER_0_5_81
*1561 FILLER_0_5_93
*1562 FILLER_0_6_109
*1563 FILLER_0_6_121
*1564 FILLER_0_6_133