*SPEF "ieee 1481-1999"
*DESIGN "tt_um_njzhu_uart"
*DATE "11:11:11 Fri 11 11, 1111"
*VENDOR "OpenRCX"
*PROGRAM "Parallel Extraction"
*VERSION "1.0"
*DESIGN_FLOW "NAME_SCOPE LOCAL" "PIN_CAP NONE"
*DIVIDER /
*DELIMITER :
*BUS_DELIMITER []
*T_UNIT 1 NS
*C_UNIT 1 PF
*R_UNIT 1 OHM
*L_UNIT 1 HENRY

*NAME_MAP
*3 clk
*4 ena
*5 rst_n
*6 ui_in[0]
*7 ui_in[1]
*8 ui_in[2]
*9 ui_in[3]
*10 ui_in[4]
*11 ui_in[5]
*12 ui_in[6]
*13 ui_in[7]
*14 uio_in[0]
*15 uio_in[1]
*16 uio_in[2]
*17 uio_in[3]
*18 uio_in[4]
*19 uio_in[5]
*20 uio_in[6]
*21 uio_in[7]
*22 uio_oe[0]
*23 uio_oe[1]
*24 uio_oe[2]
*25 uio_oe[3]
*26 uio_oe[4]
*27 uio_oe[5]
*28 uio_oe[6]
*29 uio_oe[7]
*30 uio_out[0]
*31 net13
*32 net14
*33 net15
*34 net16
*35 net17
*36 net18
*37 net19
*38 uo_out[0]
*39 uo_out[1]
*40 uo_out[2]
*41 uo_out[3]
*42 uo_out[4]
*43 uo_out[5]
*44 uo_out[6]
*45 uo_out[7]
*46 _000_
*47 _001_
*48 _002_
*49 _003_
*50 _004_
*51 _005_
*52 _006_
*53 _007_
*54 _008_
*55 _009_
*56 _010_
*57 _011_
*58 _012_
*59 _013_
*60 _014_
*61 _015_
*62 _016_
*63 _017_
*64 _018_
*65 _019_
*66 _020_
*67 _021_
*68 _022_
*69 _023_
*70 _024_
*71 _025_
*72 _026_
*73 _027_
*74 _028_
*75 _029_
*76 _030_
*77 _031_
*78 _032_
*79 _033_
*80 _034_
*81 _035_
*82 _036_
*83 _037_
*84 _038_
*85 _039_
*86 _040_
*87 _041_
*88 _042_
*89 _043_
*90 _044_
*91 _045_
*92 _046_
*93 _047_
*94 _048_
*95 _049_
*96 _050_
*97 _051_
*98 _052_
*99 _053_
*100 _054_
*101 _055_
*102 _056_
*103 _057_
*104 _058_
*105 _059_
*106 _060_
*107 _061_
*108 _062_
*109 _063_
*110 _064_
*111 _065_
*112 _066_
*113 _067_
*114 _068_
*115 _069_
*116 _070_
*117 _071_
*118 _072_
*119 _073_
*120 _074_
*121 _075_
*122 _076_
*123 _077_
*124 _078_
*125 _079_
*126 _080_
*127 _081_
*128 _082_
*129 _083_
*130 _084_
*131 _085_
*132 _086_
*133 _087_
*134 _088_
*135 _089_
*136 _090_
*137 _091_
*138 _092_
*139 _093_
*140 _094_
*141 _095_
*142 _096_
*143 _097_
*144 _098_
*145 _099_
*146 _100_
*147 _101_
*148 _102_
*149 _103_
*150 _104_
*151 _105_
*152 _106_
*153 _107_
*154 _108_
*155 _109_
*156 _110_
*157 _111_
*158 _112_
*159 _113_
*160 _114_
*161 _115_
*162 _116_
*163 _117_
*164 _118_
*165 _119_
*166 _120_
*167 _121_
*168 _122_
*169 _123_
*170 _124_
*171 _125_
*172 _126_
*173 _127_
*174 _128_
*175 _129_
*176 _130_
*177 _131_
*178 _132_
*179 _133_
*180 _134_
*181 _135_
*182 _136_
*183 _137_
*184 _138_
*185 _139_
*186 _140_
*187 _141_
*188 _142_
*189 _143_
*190 _144_
*191 _145_
*192 _146_
*193 _147_
*194 _148_
*195 _149_
*196 _150_
*197 _151_
*198 _152_
*199 _153_
*200 _154_
*201 _155_
*202 _156_
*203 _157_
*204 _158_
*205 _159_
*206 _160_
*207 _161_
*208 _162_
*209 clknet_0_clk
*210 clknet_2_0__leaf_clk
*211 clknet_2_1__leaf_clk
*212 clknet_2_2__leaf_clk
*213 clknet_2_3__leaf_clk
*214 net1
*215 net10
*216 net11
*217 net12
*218 net2
*219 net20
*220 net21
*221 net22
*222 net23
*223 net24
*224 net25
*225 net26
*226 net27
*227 net28
*228 net29
*229 net3
*230 net30
*231 net31
*232 net32
*233 net33
*234 net34
*235 net35
*236 net36
*237 net37
*238 net38
*239 net39
*240 net4
*241 net40
*242 net5
*243 net6
*244 net7
*245 net8
*246 net9
*247 uart_rx\.clk_read\.Q\[0\]
*248 uart_rx\.clk_read\.Q\[1\]
*249 uart_rx\.clk_read\.Q\[2\]
*250 uart_rx\.clk_read\.Q\[3\]
*251 uart_rx\.clk_read\.Q\[4\]
*252 uart_rx\.clk_read\.Q\[5\]
*253 uart_rx\.clk_read\.Q\[6\]
*254 uart_rx\.clk_read\.Q\[7\]
*255 uart_rx\.clk_read\.Q\[8\]
*256 uart_rx\.clk_read\.Q\[9\]
*257 uart_rx\.dataOut\[0\]
*258 uart_rx\.dataOut\[1\]
*259 uart_rx\.dataOut\[2\]
*260 uart_rx\.dataOut\[3\]
*261 uart_rx\.dataOut\[4\]
*262 uart_rx\.dataOut\[5\]
*263 uart_rx\.dataOut\[6\]
*264 uart_rx\.dataOut\[7\]
*265 uart_rx\.data_bits\[0\]
*266 uart_rx\.data_bits\[1\]
*267 uart_rx\.data_bits\[2\]
*268 uart_rx\.data_bits\[3\]
*269 uart_rx\.nextState\[0\]
*270 uart_rx\.nextState\[1\]
*271 uart_rx\.state\[0\]
*272 uart_rx\.state\[1\]
*273 uart_tx\.clk_read\.Q\[0\]
*274 uart_tx\.clk_read\.Q\[1\]
*275 uart_tx\.clk_read\.Q\[2\]
*276 uart_tx\.clk_read\.Q\[3\]
*277 uart_tx\.clk_read\.Q\[4\]
*278 uart_tx\.clk_read\.Q\[5\]
*279 uart_tx\.clk_read\.Q\[6\]
*280 uart_tx\.clk_read\.Q\[7\]
*281 uart_tx\.clk_read\.Q\[8\]
*282 uart_tx\.clk_read\.Q\[9\]
*283 uart_tx\.data_bits\[0\]
*284 uart_tx\.data_bits\[1\]
*285 uart_tx\.data_bits\[2\]
*286 uart_tx\.nextState\[0\]
*287 uart_tx\.nextState\[1\]
*288 uart_tx\.state\[0\]
*289 uart_tx\.state\[1\]
*290 FILLER_0_0_109
*291 FILLER_0_0_113
*292 FILLER_0_0_125
*293 FILLER_0_0_137
*294 FILLER_0_0_141
*295 FILLER_0_0_15
*296 FILLER_0_0_153
*297 FILLER_0_0_165
*298 FILLER_0_0_169
*299 FILLER_0_0_181
*300 FILLER_0_0_193
*301 FILLER_0_0_197
*302 FILLER_0_0_209
*303 FILLER_0_0_221
*304 FILLER_0_0_225
*305 FILLER_0_0_237
*306 FILLER_0_0_249
*307 FILLER_0_0_253
*308 FILLER_0_0_265
*309 FILLER_0_0_27
*310 FILLER_0_0_277
*311 FILLER_0_0_281
*312 FILLER_0_0_29
*313 FILLER_0_0_293
*314 FILLER_0_0_3
*315 FILLER_0_0_305
*316 FILLER_0_0_309
*317 FILLER_0_0_321
*318 FILLER_0_0_333
*319 FILLER_0_0_337
*320 FILLER_0_0_349
*321 FILLER_0_0_41
*322 FILLER_0_0_53
*323 FILLER_0_0_57
*324 FILLER_0_0_69
*325 FILLER_0_0_81
*326 FILLER_0_0_85
*327 FILLER_0_0_97
*328 FILLER_0_10_109
*329 FILLER_0_10_121
*330 FILLER_0_10_133
*331 FILLER_0_10_139
*332 FILLER_0_10_141
*333 FILLER_0_10_15
*334 FILLER_0_10_153
*335 FILLER_0_10_165
*336 FILLER_0_10_177
*337 FILLER_0_10_189
*338 FILLER_0_10_195
*339 FILLER_0_10_197
*340 FILLER_0_10_209
*341 FILLER_0_10_221
*342 FILLER_0_10_233
*343 FILLER_0_10_245
*344 FILLER_0_10_251
*345 FILLER_0_10_253
*346 FILLER_0_10_265
*347 FILLER_0_10_27
*348 FILLER_0_10_277
*349 FILLER_0_10_289
*350 FILLER_0_10_29
*351 FILLER_0_10_3
*352 FILLER_0_10_301
*353 FILLER_0_10_307
*354 FILLER_0_10_309
*355 FILLER_0_10_321
*356 FILLER_0_10_333
*357 FILLER_0_10_345
*358 FILLER_0_10_41
*359 FILLER_0_10_53
*360 FILLER_0_10_65
*361 FILLER_0_10_77
*362 FILLER_0_10_83
*363 FILLER_0_10_85
*364 FILLER_0_10_97
*365 FILLER_0_11_105
*366 FILLER_0_11_111
*367 FILLER_0_11_113
*368 FILLER_0_11_125
*369 FILLER_0_11_137
*370 FILLER_0_11_149
*371 FILLER_0_11_15
*372 FILLER_0_11_161
*373 FILLER_0_11_167
*374 FILLER_0_11_169
*375 FILLER_0_11_181
*376 FILLER_0_11_193
*377 FILLER_0_11_205
*378 FILLER_0_11_217
*379 FILLER_0_11_223
*380 FILLER_0_11_225
*381 FILLER_0_11_237
*382 FILLER_0_11_249
*383 FILLER_0_11_261
*384 FILLER_0_11_27
*385 FILLER_0_11_273
*386 FILLER_0_11_279
*387 FILLER_0_11_281
*388 FILLER_0_11_293
*389 FILLER_0_11_3
*390 FILLER_0_11_305
*391 FILLER_0_11_317
*392 FILLER_0_11_329
*393 FILLER_0_11_335
*394 FILLER_0_11_337
*395 FILLER_0_11_349
*396 FILLER_0_11_39
*397 FILLER_0_11_51
*398 FILLER_0_11_55
*399 FILLER_0_11_57
*400 FILLER_0_11_69
*401 FILLER_0_11_81
*402 FILLER_0_11_93
*403 FILLER_0_12_109
*404 FILLER_0_12_121
*405 FILLER_0_12_133
*406 FILLER_0_12_139
*407 FILLER_0_12_141
*408 FILLER_0_12_15
*409 FILLER_0_12_153
*410 FILLER_0_12_165
*411 FILLER_0_12_177
*412 FILLER_0_12_189
*413 FILLER_0_12_195
*414 FILLER_0_12_197
*415 FILLER_0_12_209
*416 FILLER_0_12_221
*417 FILLER_0_12_233
*418 FILLER_0_12_245
*419 FILLER_0_12_251
*420 FILLER_0_12_253
*421 FILLER_0_12_265
*422 FILLER_0_12_27
*423 FILLER_0_12_277
*424 FILLER_0_12_289
*425 FILLER_0_12_29
*426 FILLER_0_12_3
*427 FILLER_0_12_301
*428 FILLER_0_12_307
*429 FILLER_0_12_309
*430 FILLER_0_12_321
*431 FILLER_0_12_333
*432 FILLER_0_12_345
*433 FILLER_0_12_41
*434 FILLER_0_12_53
*435 FILLER_0_12_65
*436 FILLER_0_12_77
*437 FILLER_0_12_83
*438 FILLER_0_12_85
*439 FILLER_0_12_97
*440 FILLER_0_13_105
*441 FILLER_0_13_111
*442 FILLER_0_13_113
*443 FILLER_0_13_125
*444 FILLER_0_13_137
*445 FILLER_0_13_149
*446 FILLER_0_13_15
*447 FILLER_0_13_161
*448 FILLER_0_13_167
*449 FILLER_0_13_169
*450 FILLER_0_13_181
*451 FILLER_0_13_193
*452 FILLER_0_13_205
*453 FILLER_0_13_217
*454 FILLER_0_13_223
*455 FILLER_0_13_225
*456 FILLER_0_13_237
*457 FILLER_0_13_249
*458 FILLER_0_13_261
*459 FILLER_0_13_27
*460 FILLER_0_13_273
*461 FILLER_0_13_279
*462 FILLER_0_13_281
*463 FILLER_0_13_293
*464 FILLER_0_13_3
*465 FILLER_0_13_305
*466 FILLER_0_13_317
*467 FILLER_0_13_329
*468 FILLER_0_13_335
*469 FILLER_0_13_337
*470 FILLER_0_13_349
*471 FILLER_0_13_39
*472 FILLER_0_13_51
*473 FILLER_0_13_55
*474 FILLER_0_13_57
*475 FILLER_0_13_69
*476 FILLER_0_13_81
*477 FILLER_0_13_93
*478 FILLER_0_14_109
*479 FILLER_0_14_121
*480 FILLER_0_14_133
*481 FILLER_0_14_139
*482 FILLER_0_14_141
*483 FILLER_0_14_15
*484 FILLER_0_14_153
*485 FILLER_0_14_165
*486 FILLER_0_14_177
*487 FILLER_0_14_189
*488 FILLER_0_14_195
*489 FILLER_0_14_197
*490 FILLER_0_14_209
*491 FILLER_0_14_221
*492 FILLER_0_14_233
*493 FILLER_0_14_245
*494 FILLER_0_14_251
*495 FILLER_0_14_253
*496 FILLER_0_14_265
*497 FILLER_0_14_27
*498 FILLER_0_14_277
*499 FILLER_0_14_289
*500 FILLER_0_14_29
*501 FILLER_0_14_3
*502 FILLER_0_14_301
*503 FILLER_0_14_307
*504 FILLER_0_14_309
*505 FILLER_0_14_321
*506 FILLER_0_14_333
*507 FILLER_0_14_345
*508 FILLER_0_14_41
*509 FILLER_0_14_53
*510 FILLER_0_14_65
*511 FILLER_0_14_77
*512 FILLER_0_14_83
*513 FILLER_0_14_85
*514 FILLER_0_14_97
*515 FILLER_0_15_105
*516 FILLER_0_15_111
*517 FILLER_0_15_113
*518 FILLER_0_15_125
*519 FILLER_0_15_137
*520 FILLER_0_15_149
*521 FILLER_0_15_15
*522 FILLER_0_15_161
*523 FILLER_0_15_167
*524 FILLER_0_15_169
*525 FILLER_0_15_181
*526 FILLER_0_15_193
*527 FILLER_0_15_205
*528 FILLER_0_15_217
*529 FILLER_0_15_223
*530 FILLER_0_15_225
*531 FILLER_0_15_237
*532 FILLER_0_15_249
*533 FILLER_0_15_261
*534 FILLER_0_15_27
*535 FILLER_0_15_273
*536 FILLER_0_15_279
*537 FILLER_0_15_281
*538 FILLER_0_15_293
*539 FILLER_0_15_3
*540 FILLER_0_15_305
*541 FILLER_0_15_317
*542 FILLER_0_15_329
*543 FILLER_0_15_335
*544 FILLER_0_15_337
*545 FILLER_0_15_349
*546 FILLER_0_15_39
*547 FILLER_0_15_51
*548 FILLER_0_15_55
*549 FILLER_0_15_57
*550 FILLER_0_15_69
*551 FILLER_0_15_81
*552 FILLER_0_15_93
*553 FILLER_0_16_109
*554 FILLER_0_16_121
*555 FILLER_0_16_133
*556 FILLER_0_16_139
*557 FILLER_0_16_141
*558 FILLER_0_16_15
*559 FILLER_0_16_153
*560 FILLER_0_16_165
*561 FILLER_0_16_177
*562 FILLER_0_16_189
*563 FILLER_0_16_195
*564 FILLER_0_16_197
*565 FILLER_0_16_209
*566 FILLER_0_16_221
*567 FILLER_0_16_233
*568 FILLER_0_16_245
*569 FILLER_0_16_251
*570 FILLER_0_16_253
*571 FILLER_0_16_265
*572 FILLER_0_16_27
*573 FILLER_0_16_277
*574 FILLER_0_16_289
*575 FILLER_0_16_29
*576 FILLER_0_16_3
*577 FILLER_0_16_301
*578 FILLER_0_16_307
*579 FILLER_0_16_309
*580 FILLER_0_16_321
*581 FILLER_0_16_333
*582 FILLER_0_16_345
*583 FILLER_0_16_41
*584 FILLER_0_16_53
*585 FILLER_0_16_65
*586 FILLER_0_16_77
*587 FILLER_0_16_83
*588 FILLER_0_16_85
*589 FILLER_0_16_97
*590 FILLER_0_17_105
*591 FILLER_0_17_111
*592 FILLER_0_17_113
*593 FILLER_0_17_125
*594 FILLER_0_17_137
*595 FILLER_0_17_149
*596 FILLER_0_17_15
*597 FILLER_0_17_161
*598 FILLER_0_17_167
*599 FILLER_0_17_169
*600 FILLER_0_17_181
*601 FILLER_0_17_193
*602 FILLER_0_17_205
*603 FILLER_0_17_217
*604 FILLER_0_17_223
*605 FILLER_0_17_225
*606 FILLER_0_17_237
*607 FILLER_0_17_249
*608 FILLER_0_17_261
*609 FILLER_0_17_27
*610 FILLER_0_17_273
*611 FILLER_0_17_279
*612 FILLER_0_17_281
*613 FILLER_0_17_293
*614 FILLER_0_17_3
*615 FILLER_0_17_305
*616 FILLER_0_17_317
*617 FILLER_0_17_329
*618 FILLER_0_17_335
*619 FILLER_0_17_337
*620 FILLER_0_17_349
*621 FILLER_0_17_39
*622 FILLER_0_17_51
*623 FILLER_0_17_55
*624 FILLER_0_17_57
*625 FILLER_0_17_69
*626 FILLER_0_17_81
*627 FILLER_0_17_93
*628 FILLER_0_18_109
*629 FILLER_0_18_121
*630 FILLER_0_18_133
*631 FILLER_0_18_139
*632 FILLER_0_18_141
*633 FILLER_0_18_15
*634 FILLER_0_18_153
*635 FILLER_0_18_165
*636 FILLER_0_18_177
*637 FILLER_0_18_189
*638 FILLER_0_18_195
*639 FILLER_0_18_197
*640 FILLER_0_18_209
*641 FILLER_0_18_221
*642 FILLER_0_18_233
*643 FILLER_0_18_245
*644 FILLER_0_18_251
*645 FILLER_0_18_253
*646 FILLER_0_18_265
*647 FILLER_0_18_27
*648 FILLER_0_18_277
*649 FILLER_0_18_289
*650 FILLER_0_18_29
*651 FILLER_0_18_3
*652 FILLER_0_18_301
*653 FILLER_0_18_307
*654 FILLER_0_18_309
*655 FILLER_0_18_321
*656 FILLER_0_18_333
*657 FILLER_0_18_345
*658 FILLER_0_18_41
*659 FILLER_0_18_53
*660 FILLER_0_18_65
*661 FILLER_0_18_77
*662 FILLER_0_18_83
*663 FILLER_0_18_85
*664 FILLER_0_18_97
*665 FILLER_0_19_105
*666 FILLER_0_19_111
*667 FILLER_0_19_113
*668 FILLER_0_19_125
*669 FILLER_0_19_137
*670 FILLER_0_19_149
*671 FILLER_0_19_15
*672 FILLER_0_19_161
*673 FILLER_0_19_167
*674 FILLER_0_19_169
*675 FILLER_0_19_181
*676 FILLER_0_19_193
*677 FILLER_0_19_205
*678 FILLER_0_19_217
*679 FILLER_0_19_223
*680 FILLER_0_19_225
*681 FILLER_0_19_237
*682 FILLER_0_19_249
*683 FILLER_0_19_261
*684 FILLER_0_19_27
*685 FILLER_0_19_273
*686 FILLER_0_19_279
*687 FILLER_0_19_281
*688 FILLER_0_19_293
*689 FILLER_0_19_3
*690 FILLER_0_19_305
*691 FILLER_0_19_317
*692 FILLER_0_19_329
*693 FILLER_0_19_335
*694 FILLER_0_19_337
*695 FILLER_0_19_349
*696 FILLER_0_19_39
*697 FILLER_0_19_51
*698 FILLER_0_19_55
*699 FILLER_0_19_57
*700 FILLER_0_19_69
*701 FILLER_0_19_81
*702 FILLER_0_19_93
*703 FILLER_0_1_105
*704 FILLER_0_1_111
*705 FILLER_0_1_113
*706 FILLER_0_1_125
*707 FILLER_0_1_137
*708 FILLER_0_1_149
*709 FILLER_0_1_15
*710 FILLER_0_1_161
*711 FILLER_0_1_167
*712 FILLER_0_1_169
*713 FILLER_0_1_181
*714 FILLER_0_1_193
*715 FILLER_0_1_205
*716 FILLER_0_1_217
*717 FILLER_0_1_223
*718 FILLER_0_1_225
*719 FILLER_0_1_237
*720 FILLER_0_1_249
*721 FILLER_0_1_261
*722 FILLER_0_1_27
*723 FILLER_0_1_273
*724 FILLER_0_1_279
*725 FILLER_0_1_281
*726 FILLER_0_1_293
*727 FILLER_0_1_3
*728 FILLER_0_1_305
*729 FILLER_0_1_317
*730 FILLER_0_1_329
*731 FILLER_0_1_335
*732 FILLER_0_1_337
*733 FILLER_0_1_349
*734 FILLER_0_1_39
*735 FILLER_0_1_51
*736 FILLER_0_1_55
*737 FILLER_0_1_57
*738 FILLER_0_1_69
*739 FILLER_0_1_81
*740 FILLER_0_1_93
*741 FILLER_0_20_109
*742 FILLER_0_20_121
*743 FILLER_0_20_133
*744 FILLER_0_20_139
*745 FILLER_0_20_141
*746 FILLER_0_20_15
*747 FILLER_0_20_153
*748 FILLER_0_20_165
*749 FILLER_0_20_177
*750 FILLER_0_20_189
*751 FILLER_0_20_195
*752 FILLER_0_20_197
*753 FILLER_0_20_209
*754 FILLER_0_20_221
*755 FILLER_0_20_233
*756 FILLER_0_20_245
*757 FILLER_0_20_251
*758 FILLER_0_20_253
*759 FILLER_0_20_265
*760 FILLER_0_20_27
*761 FILLER_0_20_277
*762 FILLER_0_20_289
*763 FILLER_0_20_29
*764 FILLER_0_20_3
*765 FILLER_0_20_301
*766 FILLER_0_20_307
*767 FILLER_0_20_309
*768 FILLER_0_20_321
*769 FILLER_0_20_333
*770 FILLER_0_20_345
*771 FILLER_0_20_41
*772 FILLER_0_20_53
*773 FILLER_0_20_65
*774 FILLER_0_20_77
*775 FILLER_0_20_83
*776 FILLER_0_20_85
*777 FILLER_0_20_97
*778 FILLER_0_21_105
*779 FILLER_0_21_111
*780 FILLER_0_21_113
*781 FILLER_0_21_125
*782 FILLER_0_21_137
*783 FILLER_0_21_149
*784 FILLER_0_21_15
*785 FILLER_0_21_161
*786 FILLER_0_21_167
*787 FILLER_0_21_169
*788 FILLER_0_21_181
*789 FILLER_0_21_193
*790 FILLER_0_21_205
*791 FILLER_0_21_217
*792 FILLER_0_21_223
*793 FILLER_0_21_225
*794 FILLER_0_21_237
*795 FILLER_0_21_249
*796 FILLER_0_21_261
*797 FILLER_0_21_27
*798 FILLER_0_21_273
*799 FILLER_0_21_279
*800 FILLER_0_21_281
*801 FILLER_0_21_293
*802 FILLER_0_21_3
*803 FILLER_0_21_305
*804 FILLER_0_21_317
*805 FILLER_0_21_329
*806 FILLER_0_21_335
*807 FILLER_0_21_337
*808 FILLER_0_21_349
*809 FILLER_0_21_39
*810 FILLER_0_21_51
*811 FILLER_0_21_55
*812 FILLER_0_21_57
*813 FILLER_0_21_69
*814 FILLER_0_21_81
*815 FILLER_0_21_93
*816 FILLER_0_22_109
*817 FILLER_0_22_121
*818 FILLER_0_22_133
*819 FILLER_0_22_139
*820 FILLER_0_22_141
*821 FILLER_0_22_15
*822 FILLER_0_22_153
*823 FILLER_0_22_165
*824 FILLER_0_22_177
*825 FILLER_0_22_189
*826 FILLER_0_22_195
*827 FILLER_0_22_197
*828 FILLER_0_22_209
*829 FILLER_0_22_221
*830 FILLER_0_22_233
*831 FILLER_0_22_245
*832 FILLER_0_22_251
*833 FILLER_0_22_253
*834 FILLER_0_22_265
*835 FILLER_0_22_27
*836 FILLER_0_22_277
*837 FILLER_0_22_289
*838 FILLER_0_22_29
*839 FILLER_0_22_3
*840 FILLER_0_22_301
*841 FILLER_0_22_307
*842 FILLER_0_22_309
*843 FILLER_0_22_321
*844 FILLER_0_22_333
*845 FILLER_0_22_345
*846 FILLER_0_22_41
*847 FILLER_0_22_53
*848 FILLER_0_22_65
*849 FILLER_0_22_77
*850 FILLER_0_22_83
*851 FILLER_0_22_85
*852 FILLER_0_22_97
*853 FILLER_0_23_105
*854 FILLER_0_23_111
*855 FILLER_0_23_113
*856 FILLER_0_23_125
*857 FILLER_0_23_137
*858 FILLER_0_23_149
*859 FILLER_0_23_15
*860 FILLER_0_23_161
*861 FILLER_0_23_167
*862 FILLER_0_23_169
*863 FILLER_0_23_181
*864 FILLER_0_23_193
*865 FILLER_0_23_205
*866 FILLER_0_23_217
*867 FILLER_0_23_223
*868 FILLER_0_23_225
*869 FILLER_0_23_237
*870 FILLER_0_23_249
*871 FILLER_0_23_261
*872 FILLER_0_23_27
*873 FILLER_0_23_273
*874 FILLER_0_23_279
*875 FILLER_0_23_281
*876 FILLER_0_23_293
*877 FILLER_0_23_3
*878 FILLER_0_23_305
*879 FILLER_0_23_317
*880 FILLER_0_23_329
*881 FILLER_0_23_335
*882 FILLER_0_23_337
*883 FILLER_0_23_349
*884 FILLER_0_23_39
*885 FILLER_0_23_51
*886 FILLER_0_23_55
*887 FILLER_0_23_57
*888 FILLER_0_23_69
*889 FILLER_0_23_81
*890 FILLER_0_23_93
*891 FILLER_0_24_109
*892 FILLER_0_24_121
*893 FILLER_0_24_133
*894 FILLER_0_24_139
*895 FILLER_0_24_141
*896 FILLER_0_24_15
*897 FILLER_0_24_165
*898 FILLER_0_24_177
*899 FILLER_0_24_183
*900 FILLER_0_24_187
*901 FILLER_0_24_195
*902 FILLER_0_24_197
*903 FILLER_0_24_209
*904 FILLER_0_24_213
*905 FILLER_0_24_230
*906 FILLER_0_24_242
*907 FILLER_0_24_250
*908 FILLER_0_24_253
*909 FILLER_0_24_259
*910 FILLER_0_24_27
*911 FILLER_0_24_280
*912 FILLER_0_24_29
*913 FILLER_0_24_292
*914 FILLER_0_24_3
*915 FILLER_0_24_304
*916 FILLER_0_24_309
*917 FILLER_0_24_321
*918 FILLER_0_24_333
*919 FILLER_0_24_345
*920 FILLER_0_24_41
*921 FILLER_0_24_53
*922 FILLER_0_24_65
*923 FILLER_0_24_77
*924 FILLER_0_24_83
*925 FILLER_0_24_85
*926 FILLER_0_24_97
*927 FILLER_0_25_105
*928 FILLER_0_25_111
*929 FILLER_0_25_113
*930 FILLER_0_25_125
*931 FILLER_0_25_129
*932 FILLER_0_25_149
*933 FILLER_0_25_15
*934 FILLER_0_25_169
*935 FILLER_0_25_201
*936 FILLER_0_25_216
*937 FILLER_0_25_225
*938 FILLER_0_25_237
*939 FILLER_0_25_249
*940 FILLER_0_25_261
*941 FILLER_0_25_27
*942 FILLER_0_25_273
*943 FILLER_0_25_279
*944 FILLER_0_25_281
*945 FILLER_0_25_293
*946 FILLER_0_25_3
*947 FILLER_0_25_305
*948 FILLER_0_25_317
*949 FILLER_0_25_329
*950 FILLER_0_25_335
*951 FILLER_0_25_337
*952 FILLER_0_25_349
*953 FILLER_0_25_39
*954 FILLER_0_25_51
*955 FILLER_0_25_55
*956 FILLER_0_25_57
*957 FILLER_0_25_69
*958 FILLER_0_25_81
*959 FILLER_0_25_93
*960 FILLER_0_26_109
*961 FILLER_0_26_121
*962 FILLER_0_26_137
*963 FILLER_0_26_141
*964 FILLER_0_26_149
*965 FILLER_0_26_15
*966 FILLER_0_26_165
*967 FILLER_0_26_177
*968 FILLER_0_26_182
*969 FILLER_0_26_194
*970 FILLER_0_26_197
*971 FILLER_0_26_216
*972 FILLER_0_26_228
*973 FILLER_0_26_240
*974 FILLER_0_26_251
*975 FILLER_0_26_253
*976 FILLER_0_26_265
*977 FILLER_0_26_27
*978 FILLER_0_26_277
*979 FILLER_0_26_289
*980 FILLER_0_26_29
*981 FILLER_0_26_3
*982 FILLER_0_26_301
*983 FILLER_0_26_307
*984 FILLER_0_26_309
*985 FILLER_0_26_321
*986 FILLER_0_26_333
*987 FILLER_0_26_345
*988 FILLER_0_26_41
*989 FILLER_0_26_53
*990 FILLER_0_26_65
*991 FILLER_0_26_77
*992 FILLER_0_26_83
*993 FILLER_0_26_85
*994 FILLER_0_26_97
*995 FILLER_0_27_101
*996 FILLER_0_27_106
*997 FILLER_0_27_15
*998 FILLER_0_27_154
*999 FILLER_0_27_166
*1000 FILLER_0_27_169
*1001 FILLER_0_27_177
*1002 FILLER_0_27_185
*1003 FILLER_0_27_197
*1004 FILLER_0_27_209
*1005 FILLER_0_27_213
*1006 FILLER_0_27_241
*1007 FILLER_0_27_262
*1008 FILLER_0_27_27
*1009 FILLER_0_27_281
*1010 FILLER_0_27_287
*1011 FILLER_0_27_291
*1012 FILLER_0_27_3
*1013 FILLER_0_27_311
*1014 FILLER_0_27_321
*1015 FILLER_0_27_333
*1016 FILLER_0_27_337
*1017 FILLER_0_27_349
*1018 FILLER_0_27_39
*1019 FILLER_0_27_51
*1020 FILLER_0_27_55
*1021 FILLER_0_27_57
*1022 FILLER_0_27_69
*1023 FILLER_0_27_81
*1024 FILLER_0_27_93
*1025 FILLER_0_28_114
*1026 FILLER_0_28_122
*1027 FILLER_0_28_134
*1028 FILLER_0_28_149
*1029 FILLER_0_28_15
*1030 FILLER_0_28_171
*1031 FILLER_0_28_179
*1032 FILLER_0_28_197
*1033 FILLER_0_28_212
*1034 FILLER_0_28_220
*1035 FILLER_0_28_228
*1036 FILLER_0_28_232
*1037 FILLER_0_28_244
*1038 FILLER_0_28_253
*1039 FILLER_0_28_260
*1040 FILLER_0_28_27
*1041 FILLER_0_28_29
*1042 FILLER_0_28_290
*1043 FILLER_0_28_3
*1044 FILLER_0_28_307
*1045 FILLER_0_28_309
*1046 FILLER_0_28_343
*1047 FILLER_0_28_41
*1048 FILLER_0_28_53
*1049 FILLER_0_28_65
*1050 FILLER_0_28_77
*1051 FILLER_0_28_83
*1052 FILLER_0_28_85
*1053 FILLER_0_28_97
*1054 FILLER_0_29_113
*1055 FILLER_0_29_131
*1056 FILLER_0_29_143
*1057 FILLER_0_29_15
*1058 FILLER_0_29_156
*1059 FILLER_0_29_162
*1060 FILLER_0_29_176
*1061 FILLER_0_29_182
*1062 FILLER_0_29_186
*1063 FILLER_0_29_209
*1064 FILLER_0_29_217
*1065 FILLER_0_29_247
*1066 FILLER_0_29_27
*1067 FILLER_0_29_277
*1068 FILLER_0_29_285
*1069 FILLER_0_29_293
*1070 FILLER_0_29_3
*1071 FILLER_0_29_300
*1072 FILLER_0_29_306
*1073 FILLER_0_29_314
*1074 FILLER_0_29_322
*1075 FILLER_0_29_334
*1076 FILLER_0_29_337
*1077 FILLER_0_29_349
*1078 FILLER_0_29_39
*1079 FILLER_0_29_51
*1080 FILLER_0_29_55
*1081 FILLER_0_29_57
*1082 FILLER_0_29_69
*1083 FILLER_0_29_81
*1084 FILLER_0_29_93
*1085 FILLER_0_2_109
*1086 FILLER_0_2_121
*1087 FILLER_0_2_133
*1088 FILLER_0_2_139
*1089 FILLER_0_2_141
*1090 FILLER_0_2_15
*1091 FILLER_0_2_153
*1092 FILLER_0_2_165
*1093 FILLER_0_2_177
*1094 FILLER_0_2_189
*1095 FILLER_0_2_195
*1096 FILLER_0_2_197
*1097 FILLER_0_2_209
*1098 FILLER_0_2_221
*1099 FILLER_0_2_233
*1100 FILLER_0_2_245
*1101 FILLER_0_2_251
*1102 FILLER_0_2_253
*1103 FILLER_0_2_265
*1104 FILLER_0_2_27
*1105 FILLER_0_2_277
*1106 FILLER_0_2_289
*1107 FILLER_0_2_29
*1108 FILLER_0_2_3
*1109 FILLER_0_2_301
*1110 FILLER_0_2_307
*1111 FILLER_0_2_309
*1112 FILLER_0_2_321
*1113 FILLER_0_2_333
*1114 FILLER_0_2_345
*1115 FILLER_0_2_41
*1116 FILLER_0_2_53
*1117 FILLER_0_2_65
*1118 FILLER_0_2_77
*1119 FILLER_0_2_83
*1120 FILLER_0_2_85
*1121 FILLER_0_2_97
*1122 FILLER_0_30_101
*1123 FILLER_0_30_105
*1124 FILLER_0_30_113
*1125 FILLER_0_30_117
*1126 FILLER_0_30_123
*1127 FILLER_0_30_141
*1128 FILLER_0_30_15
*1129 FILLER_0_30_154
*1130 FILLER_0_30_166
*1131 FILLER_0_30_178
*1132 FILLER_0_30_195
*1133 FILLER_0_30_197
*1134 FILLER_0_30_234
*1135 FILLER_0_30_246
*1136 FILLER_0_30_269
*1137 FILLER_0_30_27
*1138 FILLER_0_30_287
*1139 FILLER_0_30_29
*1140 FILLER_0_30_291
*1141 FILLER_0_30_3
*1142 FILLER_0_30_317
*1143 FILLER_0_30_343
*1144 FILLER_0_30_41
*1145 FILLER_0_30_53
*1146 FILLER_0_30_65
*1147 FILLER_0_30_77
*1148 FILLER_0_30_83
*1149 FILLER_0_30_85
*1150 FILLER_0_30_97
*1151 FILLER_0_31_101
*1152 FILLER_0_31_107
*1153 FILLER_0_31_111
*1154 FILLER_0_31_125
*1155 FILLER_0_31_130
*1156 FILLER_0_31_142
*1157 FILLER_0_31_15
*1158 FILLER_0_31_151
*1159 FILLER_0_31_157
*1160 FILLER_0_31_166
*1161 FILLER_0_31_169
*1162 FILLER_0_31_180
*1163 FILLER_0_31_189
*1164 FILLER_0_31_212
*1165 FILLER_0_31_223
*1166 FILLER_0_31_245
*1167 FILLER_0_31_256
*1168 FILLER_0_31_268
*1169 FILLER_0_31_27
*1170 FILLER_0_31_289
*1171 FILLER_0_31_295
*1172 FILLER_0_31_3
*1173 FILLER_0_31_300
*1174 FILLER_0_31_312
*1175 FILLER_0_31_319
*1176 FILLER_0_31_326
*1177 FILLER_0_31_334
*1178 FILLER_0_31_337
*1179 FILLER_0_31_349
*1180 FILLER_0_31_39
*1181 FILLER_0_31_51
*1182 FILLER_0_31_55
*1183 FILLER_0_31_57
*1184 FILLER_0_31_69
*1185 FILLER_0_31_81
*1186 FILLER_0_31_93
*1187 FILLER_0_32_107
*1188 FILLER_0_32_120
*1189 FILLER_0_32_128
*1190 FILLER_0_32_134
*1191 FILLER_0_32_141
*1192 FILLER_0_32_15
*1193 FILLER_0_32_150
*1194 FILLER_0_32_173
*1195 FILLER_0_32_177
*1196 FILLER_0_32_190
*1197 FILLER_0_32_197
*1198 FILLER_0_32_229
*1199 FILLER_0_32_241
*1200 FILLER_0_32_269
*1201 FILLER_0_32_27
*1202 FILLER_0_32_280
*1203 FILLER_0_32_29
*1204 FILLER_0_32_3
*1205 FILLER_0_32_301
*1206 FILLER_0_32_307
*1207 FILLER_0_32_309
*1208 FILLER_0_32_337
*1209 FILLER_0_32_349
*1210 FILLER_0_32_41
*1211 FILLER_0_32_53
*1212 FILLER_0_32_65
*1213 FILLER_0_32_77
*1214 FILLER_0_32_83
*1215 FILLER_0_32_85
*1216 FILLER_0_33_113
*1217 FILLER_0_33_138
*1218 FILLER_0_33_15
*1219 FILLER_0_33_164
*1220 FILLER_0_33_184
*1221 FILLER_0_33_192
*1222 FILLER_0_33_202
*1223 FILLER_0_33_214
*1224 FILLER_0_33_222
*1225 FILLER_0_33_257
*1226 FILLER_0_33_27
*1227 FILLER_0_33_291
*1228 FILLER_0_33_3
*1229 FILLER_0_33_314
*1230 FILLER_0_33_322
*1231 FILLER_0_33_334
*1232 FILLER_0_33_337
*1233 FILLER_0_33_349
*1234 FILLER_0_33_39
*1235 FILLER_0_33_51
*1236 FILLER_0_33_55
*1237 FILLER_0_33_57
*1238 FILLER_0_33_69
*1239 FILLER_0_33_81
*1240 FILLER_0_33_93
*1241 FILLER_0_34_109
*1242 FILLER_0_34_134
*1243 FILLER_0_34_141
*1244 FILLER_0_34_15
*1245 FILLER_0_34_162
*1246 FILLER_0_34_194
*1247 FILLER_0_34_202
*1248 FILLER_0_34_220
*1249 FILLER_0_34_242
*1250 FILLER_0_34_27
*1251 FILLER_0_34_29
*1252 FILLER_0_34_296
*1253 FILLER_0_34_3
*1254 FILLER_0_34_301
*1255 FILLER_0_34_307
*1256 FILLER_0_34_309
*1257 FILLER_0_34_321
*1258 FILLER_0_34_333
*1259 FILLER_0_34_345
*1260 FILLER_0_34_41
*1261 FILLER_0_34_53
*1262 FILLER_0_34_65
*1263 FILLER_0_34_77
*1264 FILLER_0_34_83
*1265 FILLER_0_34_85
*1266 FILLER_0_34_97
*1267 FILLER_0_35_105
*1268 FILLER_0_35_111
*1269 FILLER_0_35_137
*1270 FILLER_0_35_149
*1271 FILLER_0_35_15
*1272 FILLER_0_35_161
*1273 FILLER_0_35_177
*1274 FILLER_0_35_212
*1275 FILLER_0_35_232
*1276 FILLER_0_35_237
*1277 FILLER_0_35_249
*1278 FILLER_0_35_261
*1279 FILLER_0_35_267
*1280 FILLER_0_35_27
*1281 FILLER_0_35_271
*1282 FILLER_0_35_275
*1283 FILLER_0_35_3
*1284 FILLER_0_35_310
*1285 FILLER_0_35_322
*1286 FILLER_0_35_334
*1287 FILLER_0_35_337
*1288 FILLER_0_35_349
*1289 FILLER_0_35_39
*1290 FILLER_0_35_51
*1291 FILLER_0_35_55
*1292 FILLER_0_35_57
*1293 FILLER_0_35_69
*1294 FILLER_0_35_81
*1295 FILLER_0_35_93
*1296 FILLER_0_36_109
*1297 FILLER_0_36_136
*1298 FILLER_0_36_15
*1299 FILLER_0_36_154
*1300 FILLER_0_36_161
*1301 FILLER_0_36_185
*1302 FILLER_0_36_197
*1303 FILLER_0_36_225
*1304 FILLER_0_36_247
*1305 FILLER_0_36_251
*1306 FILLER_0_36_267
*1307 FILLER_0_36_27
*1308 FILLER_0_36_279
*1309 FILLER_0_36_29
*1310 FILLER_0_36_291
*1311 FILLER_0_36_3
*1312 FILLER_0_36_306
*1313 FILLER_0_36_317
*1314 FILLER_0_36_329
*1315 FILLER_0_36_341
*1316 FILLER_0_36_349
*1317 FILLER_0_36_41
*1318 FILLER_0_36_53
*1319 FILLER_0_36_65
*1320 FILLER_0_36_77
*1321 FILLER_0_36_83
*1322 FILLER_0_36_85
*1323 FILLER_0_36_97
*1324 FILLER_0_37_105
*1325 FILLER_0_37_111
*1326 FILLER_0_37_129
*1327 FILLER_0_37_134
*1328 FILLER_0_37_15
*1329 FILLER_0_37_151
*1330 FILLER_0_37_155
*1331 FILLER_0_37_166
*1332 FILLER_0_37_177
*1333 FILLER_0_37_184
*1334 FILLER_0_37_191
*1335 FILLER_0_37_204
*1336 FILLER_0_37_225
*1337 FILLER_0_37_234
*1338 FILLER_0_37_244
*1339 FILLER_0_37_258
*1340 FILLER_0_37_27
*1341 FILLER_0_37_270
*1342 FILLER_0_37_279
*1343 FILLER_0_37_3
*1344 FILLER_0_37_311
*1345 FILLER_0_37_323
*1346 FILLER_0_37_335
*1347 FILLER_0_37_337
*1348 FILLER_0_37_349
*1349 FILLER_0_37_39
*1350 FILLER_0_37_51
*1351 FILLER_0_37_55
*1352 FILLER_0_37_57
*1353 FILLER_0_37_69
*1354 FILLER_0_37_81
*1355 FILLER_0_37_93
*1356 FILLER_0_38_102
*1357 FILLER_0_38_108
*1358 FILLER_0_38_113
*1359 FILLER_0_38_141
*1360 FILLER_0_38_146
*1361 FILLER_0_38_15
*1362 FILLER_0_38_162
*1363 FILLER_0_38_174
*1364 FILLER_0_38_179
*1365 FILLER_0_38_186
*1366 FILLER_0_38_193
*1367 FILLER_0_38_201
*1368 FILLER_0_38_256
*1369 FILLER_0_38_261
*1370 FILLER_0_38_27
*1371 FILLER_0_38_279
*1372 FILLER_0_38_281
*1373 FILLER_0_38_29
*1374 FILLER_0_38_293
*1375 FILLER_0_38_3
*1376 FILLER_0_38_302
*1377 FILLER_0_38_313
*1378 FILLER_0_38_325
*1379 FILLER_0_38_333
*1380 FILLER_0_38_337
*1381 FILLER_0_38_349
*1382 FILLER_0_38_41
*1383 FILLER_0_38_53
*1384 FILLER_0_38_57
*1385 FILLER_0_38_65
*1386 FILLER_0_38_78
*1387 FILLER_0_38_85
*1388 FILLER_0_38_90
*1389 FILLER_0_38_96
*1390 FILLER_0_3_105
*1391 FILLER_0_3_111
*1392 FILLER_0_3_113
*1393 FILLER_0_3_125
*1394 FILLER_0_3_137
*1395 FILLER_0_3_149
*1396 FILLER_0_3_15
*1397 FILLER_0_3_161
*1398 FILLER_0_3_167
*1399 FILLER_0_3_169
*1400 FILLER_0_3_181
*1401 FILLER_0_3_193
*1402 FILLER_0_3_205
*1403 FILLER_0_3_217
*1404 FILLER_0_3_223
*1405 FILLER_0_3_225
*1406 FILLER_0_3_237
*1407 FILLER_0_3_249
*1408 FILLER_0_3_261
*1409 FILLER_0_3_27
*1410 FILLER_0_3_273
*1411 FILLER_0_3_279
*1412 FILLER_0_3_281
*1413 FILLER_0_3_293
*1414 FILLER_0_3_3
*1415 FILLER_0_3_305
*1416 FILLER_0_3_317
*1417 FILLER_0_3_329
*1418 FILLER_0_3_335
*1419 FILLER_0_3_337
*1420 FILLER_0_3_349
*1421 FILLER_0_3_39
*1422 FILLER_0_3_51
*1423 FILLER_0_3_55
*1424 FILLER_0_3_57
*1425 FILLER_0_3_69
*1426 FILLER_0_3_81
*1427 FILLER_0_3_93
*1428 FILLER_0_4_109
*1429 FILLER_0_4_121
*1430 FILLER_0_4_133
*1431 FILLER_0_4_139
*1432 FILLER_0_4_141
*1433 FILLER_0_4_15
*1434 FILLER_0_4_153
*1435 FILLER_0_4_165
*1436 FILLER_0_4_177
*1437 FILLER_0_4_189
*1438 FILLER_0_4_195
*1439 FILLER_0_4_197
*1440 FILLER_0_4_209
*1441 FILLER_0_4_221
*1442 FILLER_0_4_233
*1443 FILLER_0_4_245
*1444 FILLER_0_4_251
*1445 FILLER_0_4_253
*1446 FILLER_0_4_265
*1447 FILLER_0_4_27
*1448 FILLER_0_4_277
*1449 FILLER_0_4_289
*1450 FILLER_0_4_29
*1451 FILLER_0_4_3
*1452 FILLER_0_4_301
*1453 FILLER_0_4_307
*1454 FILLER_0_4_309
*1455 FILLER_0_4_321
*1456 FILLER_0_4_333
*1457 FILLER_0_4_345
*1458 FILLER_0_4_41
*1459 FILLER_0_4_53
*1460 FILLER_0_4_65
*1461 FILLER_0_4_77
*1462 FILLER_0_4_83
*1463 FILLER_0_4_85
*1464 FILLER_0_4_97
*1465 FILLER_0_5_105
*1466 FILLER_0_5_111
*1467 FILLER_0_5_113
*1468 FILLER_0_5_125
*1469 FILLER_0_5_137
*1470 FILLER_0_5_149
*1471 FILLER_0_5_15
*1472 FILLER_0_5_161
*1473 FILLER_0_5_167
*1474 FILLER_0_5_169
*1475 FILLER_0_5_181
*1476 FILLER_0_5_193
*1477 FILLER_0_5_205
*1478 FILLER_0_5_217
*1479 FILLER_0_5_223
*1480 FILLER_0_5_225
*1481 FILLER_0_5_237
*1482 FILLER_0_5_249
*1483 FILLER_0_5_261
*1484 FILLER_0_5_27
*1485 FILLER_0_5_273
*1486 FILLER_0_5_279
*1487 FILLER_0_5_281
*1488 FILLER_0_5_293
*1489 FILLER_0_5_3
*1490 FILLER_0_5_305
*1491 FILLER_0_5_317
*1492 FILLER_0_5_329
*1493 FILLER_0_5_335
*1494 FILLER_0_5_337
*1495 FILLER_0_5_349
*1496 FILLER_0_5_39
*1497 FILLER_0_5_51
*1498 FILLER_0_5_55
*1499 FILLER_0_5_57
*1500 FILLER_0_5_69
*1501 FILLER_0_5_81
*1502 FILLER_0_5_93
*1503 FILLER_0_6_109
*1504 FILLER_0_6_121
*1505 FILLER_0_6_133
*1506 FILLER_0_6_139
*1507 FILLER_0_6_141
*1508 FILLER_0_6_15
*1509 FILLER_0_6_153
*1510 FILLER_0_6_165
*1511 FILLER_0_6_177
*1512 FILLER_0_6_189
*1513 FILLER_0_6_195
*1514 FILLER_0_6_197
*1515 FILLER_0_6_209
*1516 FILLER_0_6_221
*1517 FILLER_0_6_233
*1518 FILLER_0_6_245