*SPEF "ieee 1481-1999"
*DESIGN "tt_um_urish_ringosc_cnt"
*DATE "11:11:11 Fri 11 11, 1111"
*VENDOR "OpenRCX"
*PROGRAM "Parallel Extraction"
*VERSION "1.0"
*DESIGN_FLOW "NAME_SCOPE LOCAL" "PIN_CAP NONE"
*DIVIDER /
*DELIMITER :
*BUS_DELIMITER []
*T_UNIT 1 NS
*C_UNIT 1 PF
*R_UNIT 1 OHM
*L_UNIT 1 HENRY

*NAME_MAP
*3 clk
*4 ena
*5 rst_n
*6 ui_in[0]
*7 ui_in[1]
*8 ui_in[2]
*9 ui_in[3]
*10 ui_in[4]
*11 ui_in[5]
*12 ui_in[6]
*13 ui_in[7]
*14 uio_in[0]
*15 uio_in[1]
*16 uio_in[2]
*17 uio_in[3]
*18 uio_in[4]
*19 uio_in[5]
*20 uio_in[6]
*21 uio_in[7]
*22 uio_oe[0]
*23 uio_oe[1]
*24 uio_oe[2]
*25 uio_oe[3]
*26 uio_oe[4]
*27 uio_oe[5]
*28 uio_oe[6]
*29 uio_oe[7]
*30 uio_out[0]
*31 uio_out[1]
*32 uio_out[2]
*33 uio_out[3]
*34 uio_out[4]
*35 uio_out[5]
*36 uio_out[6]
*37 uio_out[7]
*38 uo_out[0]
*39 uo_out[1]
*40 uo_out[2]
*41 uo_out[3]
*42 uo_out[4]
*43 uo_out[5]
*44 uo_out[6]
*45 uo_out[7]
*46 _000_
*47 _001_
*48 _002_
*49 _003_
*50 _004_
*51 _005_
*52 _006_
*53 _007_
*54 _008_
*55 _009_
*56 _010_
*57 _011_
*58 _012_
*59 _013_
*60 _014_
*61 _015_
*62 _016_
*63 _017_
*64 _018_
*65 _019_
*66 _020_
*67 _021_
*68 _022_
*69 _023_
*70 _024_
*71 _025_
*72 _026_
*73 _027_
*74 _028_
*75 _029_
*76 _030_
*77 _031_
*78 _032_
*79 _033_
*80 _034_
*81 _035_
*82 _036_
*83 _037_
*84 _038_
*85 _039_
*86 _040_
*87 _041_
*88 _042_
*89 _043_
*90 _044_
*91 _045_
*92 _046_
*93 _047_
*94 _048_
*95 _049_
*96 _050_
*97 _051_
*98 _052_
*99 _053_
*100 _054_
*101 _055_
*102 _056_
*103 _057_
*104 _058_
*105 _059_
*106 _060_
*107 _061_
*108 _062_
*109 _063_
*110 _064_
*111 _065_
*112 _066_
*113 _067_
*114 _068_
*115 _069_
*116 _070_
*117 _071_
*118 _072_
*119 _073_
*120 _074_
*121 _075_
*122 _076_
*123 _077_
*124 _078_
*125 _079_
*126 _080_
*127 _081_
*128 _082_
*129 _083_
*130 _084_
*131 _085_
*132 _086_
*133 _087_
*134 _088_
*135 _089_
*136 _090_
*137 _091_
*138 _092_
*139 _093_
*140 _094_
*141 _095_
*142 _096_
*143 _097_
*144 _098_
*145 _099_
*146 _100_
*147 _101_
*148 _102_
*149 _103_
*150 _104_
*151 _105_
*152 _106_
*153 _107_
*154 _108_
*155 _109_
*156 _110_
*157 _111_
*158 _112_
*159 _113_
*160 _114_
*161 _115_
*162 _116_
*163 _117_
*164 _118_
*165 _119_
*166 _120_
*167 _121_
*168 _122_
*169 _123_
*170 _124_
*171 _125_
*172 _126_
*173 _127_
*174 _128_
*175 _129_
*176 _130_
*177 _131_
*178 _132_
*179 _133_
*180 _134_
*181 _135_
*182 _136_
*183 _137_
*184 _138_
*185 _139_
*186 _140_
*187 _141_
*188 _142_
*189 _143_
*190 _144_
*191 _145_
*192 _146_
*193 _147_
*194 _148_
*195 _149_
*196 _150_
*197 _151_
*198 _152_
*199 _153_
*200 _154_
*201 counter\[0\]\.cnt_bit_I\.clk
*202 counter\[0\]\.cnt_bit_I\.d
*203 counter\[0\]\.cnt_bit_I\.q
*204 counter\[0\]\.cnt_bit_I\.rst_n
*205 counter\[10\]\.cnt_bit_I\.clk
*206 counter\[10\]\.cnt_bit_I\.d
*207 counter\[10\]\.cnt_bit_I\.q
*208 counter\[11\]\.cnt_bit_I\.d
*209 counter\[11\]\.cnt_bit_I\.q
*210 counter\[12\]\.cnt_bit_I\.d
*211 counter\[12\]\.cnt_bit_I\.q
*212 counter\[13\]\.cnt_bit_I\.d
*213 counter\[13\]\.cnt_bit_I\.q
*214 counter\[14\]\.cnt_bit_I\.d
*215 counter\[14\]\.cnt_bit_I\.q
*216 counter\[15\]\.cnt_bit_I\.d
*217 counter\[15\]\.cnt_bit_I\.q
*218 counter\[16\]\.cnt_bit_I\.d
*219 counter\[16\]\.cnt_bit_I\.q
*220 counter\[17\]\.cnt_bit_I\.d
*221 counter\[17\]\.cnt_bit_I\.q
*222 counter\[18\]\.cnt_bit_I\.d
*223 counter\[18\]\.cnt_bit_I\.q
*224 counter\[19\]\.cnt_bit_I\.d
*225 counter\[19\]\.cnt_bit_I\.q
*226 counter\[1\]\.cnt_bit_I\.d
*227 counter\[1\]\.cnt_bit_I\.q
*228 counter\[20\]\.cnt_bit_I\.d
*229 counter\[20\]\.cnt_bit_I\.q
*230 counter\[21\]\.cnt_bit_I\.d
*231 counter\[21\]\.cnt_bit_I\.q
*232 counter\[22\]\.cnt_bit_I\.d
*233 counter\[22\]\.cnt_bit_I\.q
*234 counter\[23\]\.cnt_bit_I\.d
*235 counter\[23\]\.cnt_bit_I\.q
*236 counter\[24\]\.cnt_bit_I\.d
*237 counter\[24\]\.cnt_bit_I\.q
*238 counter\[25\]\.cnt_bit_I\.d
*239 counter\[25\]\.cnt_bit_I\.q
*240 counter\[26\]\.cnt_bit_I\.d
*241 counter\[26\]\.cnt_bit_I\.q
*242 counter\[27\]\.cnt_bit_I\.d
*243 counter\[27\]\.cnt_bit_I\.q
*244 counter\[28\]\.cnt_bit_I\.d
*245 counter\[28\]\.cnt_bit_I\.q
*246 counter\[29\]\.cnt_bit_I\.d
*247 counter\[29\]\.cnt_bit_I\.q
*248 counter\[2\]\.cnt_bit_I\.d
*249 counter\[2\]\.cnt_bit_I\.q
*250 counter\[30\]\.cnt_bit_I\.d
*251 counter\[30\]\.cnt_bit_I\.q
*252 counter\[31\]\.cnt_bit_I\.d
*253 counter\[31\]\.cnt_bit_I\.q
*254 counter\[32\]\.cnt_bit_I\.d
*255 counter\[32\]\.cnt_bit_I\.q
*256 counter\[33\]\.cnt_bit_I\.d
*257 counter\[33\]\.cnt_bit_I\.q
*258 counter\[34\]\.cnt_bit_I\.d
*259 counter\[34\]\.cnt_bit_I\.q
*260 counter\[35\]\.cnt_bit_I\.d
*261 counter\[35\]\.cnt_bit_I\.q
*262 counter\[36\]\.cnt_bit_I\.d
*263 counter\[36\]\.cnt_bit_I\.q
*264 counter\[37\]\.cnt_bit_I\.d
*265 counter\[37\]\.cnt_bit_I\.q
*266 counter\[38\]\.cnt_bit_I\.d
*267 counter\[38\]\.cnt_bit_I\.q
*268 counter\[39\]\.cnt_bit_I\.d
*269 counter\[39\]\.cnt_bit_I\.q
*270 counter\[3\]\.cnt_bit_I\.d
*271 counter\[3\]\.cnt_bit_I\.q
*272 counter\[40\]\.cnt_bit_I\.d
*273 counter\[40\]\.cnt_bit_I\.q
*274 counter\[41\]\.cnt_bit_I\.d
*275 counter\[41\]\.cnt_bit_I\.q
*276 counter\[42\]\.cnt_bit_I\.d
*277 counter\[42\]\.cnt_bit_I\.q
*278 counter\[43\]\.cnt_bit_I\.d
*279 counter\[43\]\.cnt_bit_I\.q
*280 counter\[44\]\.cnt_bit_I\.d
*281 counter\[44\]\.cnt_bit_I\.q
*282 counter\[45\]\.cnt_bit_I\.d
*283 counter\[45\]\.cnt_bit_I\.q
*284 counter\[46\]\.cnt_bit_I\.d
*285 counter\[46\]\.cnt_bit_I\.q
*286 counter\[47\]\.cnt_bit_I\.d
*287 counter\[47\]\.cnt_bit_I\.q
*288 counter\[48\]\.cnt_bit_I\.d
*289 counter\[48\]\.cnt_bit_I\.q
*290 counter\[49\]\.cnt_bit_I\.d
*291 counter\[49\]\.cnt_bit_I\.q
*292 counter\[4\]\.cnt_bit_I\.d
*293 counter\[4\]\.cnt_bit_I\.q
*294 counter\[50\]\.cnt_bit_I\.d
*295 counter\[50\]\.cnt_bit_I\.q
*296 counter\[51\]\.cnt_bit_I\.d
*297 counter\[51\]\.cnt_bit_I\.q
*298 counter\[52\]\.cnt_bit_I\.d
*299 counter\[52\]\.cnt_bit_I\.q
*300 counter\[53\]\.cnt_bit_I\.d
*301 counter\[53\]\.cnt_bit_I\.q
*302 counter\[54\]\.cnt_bit_I\.d
*303 counter\[54\]\.cnt_bit_I\.q
*304 counter\[55\]\.cnt_bit_I\.d
*305 counter\[55\]\.cnt_bit_I\.q
*306 counter\[56\]\.cnt_bit_I\.d
*307 counter\[56\]\.cnt_bit_I\.q
*308 counter\[57\]\.cnt_bit_I\.d
*309 counter\[57\]\.cnt_bit_I\.q
*310 counter\[58\]\.cnt_bit_I\.d
*311 counter\[58\]\.cnt_bit_I\.q
*312 counter\[59\]\.cnt_bit_I\.d
*313 counter\[59\]\.cnt_bit_I\.q
*314 counter\[5\]\.cnt_bit_I\.d
*315 counter\[5\]\.cnt_bit_I\.q
*316 counter\[60\]\.cnt_bit_I\.d
*317 counter\[60\]\.cnt_bit_I\.q
*318 counter\[61\]\.cnt_bit_I\.d
*319 counter\[61\]\.cnt_bit_I\.q
*320 counter\[62\]\.cnt_bit_I\.d
*321 counter\[62\]\.cnt_bit_I\.q
*322 counter\[63\]\.cnt_bit_I\.d
*323 counter\[63\]\.cnt_bit_I\.q
*324 counter\[6\]\.cnt_bit_I\.d
*325 counter\[6\]\.cnt_bit_I\.q
*326 counter\[7\]\.cnt_bit_I\.d
*327 counter\[7\]\.cnt_bit_I\.q
*328 counter\[8\]\.cnt_bit_I\.d
*329 counter\[8\]\.cnt_bit_I\.q
*330 counter\[9\]\.cnt_bit_I\.q
*331 net1
*332 net10
*333 net11
*334 net12
*335 net13
*336 net14
*337 net15
*338 net16
*339 net17
*340 net18
*341 net19
*342 net2
*343 net20
*344 net21
*345 net22
*346 net23
*347 net24
*348 net25
*349 net26
*350 net27
*351 net28
*352 net29
*353 net3
*354 net30
*355 net31
*356 net32
*357 net33
*358 net34
*359 net35
*360 net36
*361 net37
*362 net38
*363 net39
*364 net4
*365 net40
*366 net41
*367 net42
*368 net43
*369 net44
*370 net45
*371 net46
*372 net47
*373 net48
*374 net49
*375 net5
*376 net50
*377 net51
*378 net52
*379 net53
*380 net54
*381 net55
*382 net56
*383 net57
*384 net58
*385 net59
*386 net6
*387 net60
*388 net61
*389 net62
*390 net63
*391 net64
*392 net65
*393 net7
*394 net8
*395 net9
*396 ringosc\[0\]\.inv\.a
*397 ringosc\[10\]\.inv\.a
*398 ringosc\[10\]\.inv\.y
*399 ringosc\[11\]\.inv\.y
*400 ringosc\[12\]\.inv\.y
*401 ringosc\[1\]\.inv\.y
*402 ringosc\[2\]\.inv\.y
*403 ringosc\[3\]\.inv\.y
*404 ringosc\[4\]\.inv\.y
*405 ringosc\[5\]\.inv\.y
*406 ringosc\[6\]\.inv\.y
*407 ringosc\[7\]\.inv\.y
*408 ringosc\[8\]\.inv\.y
*409 FILLER_0_0_109
*410 FILLER_0_0_113
*411 FILLER_0_0_125
*412 FILLER_0_0_137
*413 FILLER_0_0_141
*414 FILLER_0_0_15
*415 FILLER_0_0_153
*416 FILLER_0_0_165
*417 FILLER_0_0_169
*418 FILLER_0_0_181
*419 FILLER_0_0_193
*420 FILLER_0_0_197
*421 FILLER_0_0_209
*422 FILLER_0_0_221
*423 FILLER_0_0_225
*424 FILLER_0_0_237
*425 FILLER_0_0_249
*426 FILLER_0_0_253
*427 FILLER_0_0_265
*428 FILLER_0_0_27
*429 FILLER_0_0_277
*430 FILLER_0_0_281
*431 FILLER_0_0_29
*432 FILLER_0_0_293
*433 FILLER_0_0_3
*434 FILLER_0_0_305
*435 FILLER_0_0_309
*436 FILLER_0_0_321
*437 FILLER_0_0_333
*438 FILLER_0_0_337
*439 FILLER_0_0_349
*440 FILLER_0_0_41
*441 FILLER_0_0_53
*442 FILLER_0_0_57
*443 FILLER_0_0_69
*444 FILLER_0_0_81
*445 FILLER_0_0_85
*446 FILLER_0_0_97
*447 FILLER_0_10_109
*448 FILLER_0_10_121
*449 FILLER_0_10_133
*450 FILLER_0_10_139
*451 FILLER_0_10_141
*452 FILLER_0_10_15
*453 FILLER_0_10_153
*454 FILLER_0_10_165
*455 FILLER_0_10_177
*456 FILLER_0_10_189
*457 FILLER_0_10_195
*458 FILLER_0_10_197
*459 FILLER_0_10_209
*460 FILLER_0_10_221
*461 FILLER_0_10_233
*462 FILLER_0_10_245
*463 FILLER_0_10_251
*464 FILLER_0_10_253
*465 FILLER_0_10_265
*466 FILLER_0_10_27
*467 FILLER_0_10_277
*468 FILLER_0_10_289
*469 FILLER_0_10_29
*470 FILLER_0_10_3
*471 FILLER_0_10_301
*472 FILLER_0_10_307
*473 FILLER_0_10_309
*474 FILLER_0_10_321
*475 FILLER_0_10_333
*476 FILLER_0_10_345
*477 FILLER_0_10_41
*478 FILLER_0_10_53
*479 FILLER_0_10_65
*480 FILLER_0_10_77
*481 FILLER_0_10_83
*482 FILLER_0_10_85
*483 FILLER_0_10_97
*484 FILLER_0_11_105
*485 FILLER_0_11_111
*486 FILLER_0_11_113
*487 FILLER_0_11_125
*488 FILLER_0_11_137
*489 FILLER_0_11_149
*490 FILLER_0_11_15
*491 FILLER_0_11_161
*492 FILLER_0_11_167
*493 FILLER_0_11_169
*494 FILLER_0_11_181
*495 FILLER_0_11_193
*496 FILLER_0_11_205
*497 FILLER_0_11_217
*498 FILLER_0_11_223
*499 FILLER_0_11_225
*500 FILLER_0_11_237
*501 FILLER_0_11_249
*502 FILLER_0_11_261
*503 FILLER_0_11_27
*504 FILLER_0_11_273
*505 FILLER_0_11_279
*506 FILLER_0_11_281
*507 FILLER_0_11_293
*508 FILLER_0_11_3
*509 FILLER_0_11_305
*510 FILLER_0_11_317
*511 FILLER_0_11_329
*512 FILLER_0_11_335
*513 FILLER_0_11_337
*514 FILLER_0_11_349
*515 FILLER_0_11_39
*516 FILLER_0_11_51
*517 FILLER_0_11_55
*518 FILLER_0_11_57
*519 FILLER_0_11_69
*520 FILLER_0_11_81
*521 FILLER_0_11_93
*522 FILLER_0_12_109
*523 FILLER_0_12_121
*524 FILLER_0_12_133
*525 FILLER_0_12_139
*526 FILLER_0_12_141
*527 FILLER_0_12_15
*528 FILLER_0_12_153
*529 FILLER_0_12_165
*530 FILLER_0_12_177
*531 FILLER_0_12_189
*532 FILLER_0_12_195
*533 FILLER_0_12_197
*534 FILLER_0_12_209
*535 FILLER_0_12_221
*536 FILLER_0_12_233
*537 FILLER_0_12_245
*538 FILLER_0_12_251
*539 FILLER_0_12_253
*540 FILLER_0_12_265
*541 FILLER_0_12_27
*542 FILLER_0_12_277
*543 FILLER_0_12_289
*544 FILLER_0_12_29
*545 FILLER_0_12_3
*546 FILLER_0_12_301
*547 FILLER_0_12_307
*548 FILLER_0_12_309
*549 FILLER_0_12_321
*550 FILLER_0_12_333
*551 FILLER_0_12_345
*552 FILLER_0_12_41
*553 FILLER_0_12_53
*554 FILLER_0_12_65
*555 FILLER_0_12_77
*556 FILLER_0_12_83
*557 FILLER_0_12_85
*558 FILLER_0_12_97
*559 FILLER_0_13_105
*560 FILLER_0_13_111
*561 FILLER_0_13_113
*562 FILLER_0_13_125
*563 FILLER_0_13_137
*564 FILLER_0_13_149
*565 FILLER_0_13_15
*566 FILLER_0_13_161
*567 FILLER_0_13_167
*568 FILLER_0_13_169
*569 FILLER_0_13_181
*570 FILLER_0_13_193
*571 FILLER_0_13_205
*572 FILLER_0_13_217
*573 FILLER_0_13_223
*574 FILLER_0_13_225
*575 FILLER_0_13_237
*576 FILLER_0_13_249
*577 FILLER_0_13_261
*578 FILLER_0_13_27
*579 FILLER_0_13_273
*580 FILLER_0_13_279
*581 FILLER_0_13_281
*582 FILLER_0_13_293
*583 FILLER_0_13_3
*584 FILLER_0_13_305
*585 FILLER_0_13_317
*586 FILLER_0_13_329
*587 FILLER_0_13_335
*588 FILLER_0_13_337
*589 FILLER_0_13_349
*590 FILLER_0_13_39
*591 FILLER_0_13_51
*592 FILLER_0_13_55
*593 FILLER_0_13_57
*594 FILLER_0_13_69
*595 FILLER_0_13_81
*596 FILLER_0_13_93
*597 FILLER_0_14_109
*598 FILLER_0_14_121
*599 FILLER_0_14_133
*600 FILLER_0_14_139
*601 FILLER_0_14_141
*602 FILLER_0_14_15
*603 FILLER_0_14_153
*604 FILLER_0_14_165
*605 FILLER_0_14_177
*606 FILLER_0_14_189
*607 FILLER_0_14_195
*608 FILLER_0_14_197
*609 FILLER_0_14_209
*610 FILLER_0_14_221
*611 FILLER_0_14_233
*612 FILLER_0_14_245
*613 FILLER_0_14_251
*614 FILLER_0_14_253
*615 FILLER_0_14_265
*616 FILLER_0_14_27
*617 FILLER_0_14_277
*618 FILLER_0_14_289
*619 FILLER_0_14_29
*620 FILLER_0_14_3
*621 FILLER_0_14_301
*622 FILLER_0_14_307
*623 FILLER_0_14_309
*624 FILLER_0_14_321
*625 FILLER_0_14_333
*626 FILLER_0_14_345
*627 FILLER_0_14_41
*628 FILLER_0_14_53
*629 FILLER_0_14_65
*630 FILLER_0_14_77
*631 FILLER_0_14_83
*632 FILLER_0_14_85
*633 FILLER_0_14_97
*634 FILLER_0_15_105
*635 FILLER_0_15_111
*636 FILLER_0_15_113
*637 FILLER_0_15_125
*638 FILLER_0_15_137
*639 FILLER_0_15_149
*640 FILLER_0_15_15
*641 FILLER_0_15_161
*642 FILLER_0_15_167
*643 FILLER_0_15_169
*644 FILLER_0_15_181
*645 FILLER_0_15_193
*646 FILLER_0_15_205
*647 FILLER_0_15_217
*648 FILLER_0_15_223
*649 FILLER_0_15_225
*650 FILLER_0_15_237
*651 FILLER_0_15_249
*652 FILLER_0_15_261
*653 FILLER_0_15_27
*654 FILLER_0_15_273
*655 FILLER_0_15_279
*656 FILLER_0_15_281
*657 FILLER_0_15_293
*658 FILLER_0_15_3
*659 FILLER_0_15_305
*660 FILLER_0_15_317
*661 FILLER_0_15_329
*662 FILLER_0_15_335
*663 FILLER_0_15_337
*664 FILLER_0_15_349
*665 FILLER_0_15_39
*666 FILLER_0_15_51
*667 FILLER_0_15_55
*668 FILLER_0_15_57
*669 FILLER_0_15_69
*670 FILLER_0_15_81
*671 FILLER_0_15_93
*672 FILLER_0_16_109
*673 FILLER_0_16_121
*674 FILLER_0_16_133
*675 FILLER_0_16_139
*676 FILLER_0_16_141
*677 FILLER_0_16_15
*678 FILLER_0_16_153
*679 FILLER_0_16_165
*680 FILLER_0_16_177
*681 FILLER_0_16_189
*682 FILLER_0_16_195
*683 FILLER_0_16_197
*684 FILLER_0_16_209
*685 FILLER_0_16_221
*686 FILLER_0_16_233
*687 FILLER_0_16_245
*688 FILLER_0_16_251
*689 FILLER_0_16_253
*690 FILLER_0_16_265
*691 FILLER_0_16_27
*692 FILLER_0_16_277
*693 FILLER_0_16_289
*694 FILLER_0_16_29
*695 FILLER_0_16_3
*696 FILLER_0_16_301
*697 FILLER_0_16_307
*698 FILLER_0_16_309
*699 FILLER_0_16_321
*700 FILLER_0_16_333
*701 FILLER_0_16_345
*702 FILLER_0_16_41
*703 FILLER_0_16_53
*704 FILLER_0_16_65
*705 FILLER_0_16_77
*706 FILLER_0_16_83
*707 FILLER_0_16_85
*708 FILLER_0_16_97
*709 FILLER_0_17_105
*710 FILLER_0_17_111
*711 FILLER_0_17_113
*712 FILLER_0_17_125
*713 FILLER_0_17_137
*714 FILLER_0_17_149
*715 FILLER_0_17_15
*716 FILLER_0_17_161
*717 FILLER_0_17_167
*718 FILLER_0_17_169
*719 FILLER_0_17_181
*720 FILLER_0_17_193
*721 FILLER_0_17_205
*722 FILLER_0_17_217
*723 FILLER_0_17_223
*724 FILLER_0_17_225
*725 FILLER_0_17_237
*726 FILLER_0_17_249
*727 FILLER_0_17_261
*728 FILLER_0_17_27
*729 FILLER_0_17_273
*730 FILLER_0_17_279
*731 FILLER_0_17_281
*732 FILLER_0_17_293
*733 FILLER_0_17_3
*734 FILLER_0_17_305
*735 FILLER_0_17_317
*736 FILLER_0_17_329
*737 FILLER_0_17_335
*738 FILLER_0_17_337
*739 FILLER_0_17_349
*740 FILLER_0_17_39
*741 FILLER_0_17_51
*742 FILLER_0_17_55
*743 FILLER_0_17_57
*744 FILLER_0_17_69
*745 FILLER_0_17_81
*746 FILLER_0_17_93
*747 FILLER_0_18_109
*748 FILLER_0_18_121
*749 FILLER_0_18_133
*750 FILLER_0_18_139
*751 FILLER_0_18_141
*752 FILLER_0_18_15
*753 FILLER_0_18_153
*754 FILLER_0_18_165
*755 FILLER_0_18_177
*756 FILLER_0_18_189
*757 FILLER_0_18_195
*758 FILLER_0_18_197
*759 FILLER_0_18_209
*760 FILLER_0_18_221
*761 FILLER_0_18_233
*762 FILLER_0_18_245
*763 FILLER_0_18_251
*764 FILLER_0_18_253
*765 FILLER_0_18_265
*766 FILLER_0_18_27
*767 FILLER_0_18_277
*768 FILLER_0_18_289
*769 FILLER_0_18_29
*770 FILLER_0_18_3
*771 FILLER_0_18_301
*772 FILLER_0_18_307
*773 FILLER_0_18_309
*774 FILLER_0_18_321
*775 FILLER_0_18_333
*776 FILLER_0_18_345
*777 FILLER_0_18_41
*778 FILLER_0_18_53
*779 FILLER_0_18_65
*780 FILLER_0_18_77
*781 FILLER_0_18_83
*782 FILLER_0_18_85
*783 FILLER_0_18_97
*784 FILLER_0_19_102
*785 FILLER_0_19_110
*786 FILLER_0_19_113
*787 FILLER_0_19_125
*788 FILLER_0_19_137
*789 FILLER_0_19_15
*790 FILLER_0_19_164
*791 FILLER_0_19_169
*792 FILLER_0_19_204
*793 FILLER_0_19_216
*794 FILLER_0_19_248
*795 FILLER_0_19_260
*796 FILLER_0_19_27
*797 FILLER_0_19_272
*798 FILLER_0_19_281
*799 FILLER_0_19_293
*800 FILLER_0_19_3
*801 FILLER_0_19_305
*802 FILLER_0_19_317
*803 FILLER_0_19_329
*804 FILLER_0_19_335
*805 FILLER_0_19_337
*806 FILLER_0_19_349
*807 FILLER_0_19_39
*808 FILLER_0_19_51
*809 FILLER_0_19_55
*810 FILLER_0_19_57
*811 FILLER_0_19_65
*812 FILLER_0_19_90
*813 FILLER_0_1_105
*814 FILLER_0_1_111
*815 FILLER_0_1_113
*816 FILLER_0_1_125
*817 FILLER_0_1_137
*818 FILLER_0_1_149
*819 FILLER_0_1_15
*820 FILLER_0_1_161
*821 FILLER_0_1_167
*822 FILLER_0_1_169
*823 FILLER_0_1_181
*824 FILLER_0_1_193
*825 FILLER_0_1_205
*826 FILLER_0_1_217
*827 FILLER_0_1_223
*828 FILLER_0_1_225
*829 FILLER_0_1_237
*830 FILLER_0_1_249
*831 FILLER_0_1_261
*832 FILLER_0_1_27
*833 FILLER_0_1_273
*834 FILLER_0_1_279
*835 FILLER_0_1_281
*836 FILLER_0_1_293
*837 FILLER_0_1_3
*838 FILLER_0_1_305
*839 FILLER_0_1_317
*840 FILLER_0_1_329
*841 FILLER_0_1_335
*842 FILLER_0_1_337
*843 FILLER_0_1_349
*844 FILLER_0_1_39
*845 FILLER_0_1_51
*846 FILLER_0_1_55
*847 FILLER_0_1_57
*848 FILLER_0_1_69
*849 FILLER_0_1_81
*850 FILLER_0_1_93
*851 FILLER_0_20_109
*852 FILLER_0_20_141
*853 FILLER_0_20_147
*854 FILLER_0_20_15
*855 FILLER_0_20_194
*856 FILLER_0_20_243
*857 FILLER_0_20_251
*858 FILLER_0_20_253
*859 FILLER_0_20_27
*860 FILLER_0_20_277
*861 FILLER_0_20_289
*862 FILLER_0_20_29
*863 FILLER_0_20_3
*864 FILLER_0_20_301
*865 FILLER_0_20_307
*866 FILLER_0_20_309
*867 FILLER_0_20_321
*868 FILLER_0_20_333
*869 FILLER_0_20_345
*870 FILLER_0_20_41
*871 FILLER_0_20_53
*872 FILLER_0_20_65
*873 FILLER_0_20_77
*874 FILLER_0_20_83
*875 FILLER_0_20_85
*876 FILLER_0_21_119
*877 FILLER_0_21_15
*878 FILLER_0_21_154
*879 FILLER_0_21_166
*880 FILLER_0_21_192
*881 FILLER_0_21_200
*882 FILLER_0_21_225
*883 FILLER_0_21_231
*884 FILLER_0_21_27
*885 FILLER_0_21_278
*886 FILLER_0_21_3
*887 FILLER_0_21_304
*888 FILLER_0_21_316
*889 FILLER_0_21_328
*890 FILLER_0_21_337
*891 FILLER_0_21_349
*892 FILLER_0_21_39
*893 FILLER_0_21_51
*894 FILLER_0_21_55
*895 FILLER_0_21_57
*896 FILLER_0_21_65
*897 FILLER_0_22_106
*898 FILLER_0_22_133
*899 FILLER_0_22_139
*900 FILLER_0_22_15
*901 FILLER_0_22_162
*902 FILLER_0_22_174
*903 FILLER_0_22_186
*904 FILLER_0_22_194
*905 FILLER_0_22_239
*906 FILLER_0_22_251
*907 FILLER_0_22_253
*908 FILLER_0_22_261
*909 FILLER_0_22_27
*910 FILLER_0_22_286
*911 FILLER_0_22_29
*912 FILLER_0_22_298
*913 FILLER_0_22_3
*914 FILLER_0_22_306
*915 FILLER_0_22_309
*916 FILLER_0_22_321
*917 FILLER_0_22_333
*918 FILLER_0_22_345
*919 FILLER_0_22_41
*920 FILLER_0_22_53
*921 FILLER_0_22_82
*922 FILLER_0_23_113
*923 FILLER_0_23_136
*924 FILLER_0_23_144
*925 FILLER_0_23_15
*926 FILLER_0_23_169
*927 FILLER_0_23_181
*928 FILLER_0_23_187
*929 FILLER_0_23_209
*930 FILLER_0_23_221
*931 FILLER_0_23_225
*932 FILLER_0_23_249
*933 FILLER_0_23_261
*934 FILLER_0_23_27
*935 FILLER_0_23_273
*936 FILLER_0_23_279
*937 FILLER_0_23_3
*938 FILLER_0_23_327
*939 FILLER_0_23_335
*940 FILLER_0_23_337
*941 FILLER_0_23_349
*942 FILLER_0_23_80
*943 FILLER_0_23_88
*944 FILLER_0_24_141
*945 FILLER_0_24_15
*946 FILLER_0_24_153
*947 FILLER_0_24_197
*948 FILLER_0_24_243
*949 FILLER_0_24_251
*950 FILLER_0_24_27
*951 FILLER_0_24_29
*952 FILLER_0_24_295
*953 FILLER_0_24_3
*954 FILLER_0_24_307
*955 FILLER_0_24_332
*956 FILLER_0_24_344
*957 FILLER_0_24_350
*958 FILLER_0_24_64
*959 FILLER_0_24_76
*960 FILLER_0_24_85
*961 FILLER_0_24_97
*962 FILLER_0_25_111
*963 FILLER_0_25_113
*964 FILLER_0_25_125
*965 FILLER_0_25_137
*966 FILLER_0_25_15
*967 FILLER_0_25_164
*968 FILLER_0_25_169
*969 FILLER_0_25_194
*970 FILLER_0_25_200
*971 FILLER_0_25_222
*972 FILLER_0_25_225
*973 FILLER_0_25_237
*974 FILLER_0_25_260
*975 FILLER_0_25_272
*976 FILLER_0_25_3
*977 FILLER_0_25_323
*978 FILLER_0_25_335
*979 FILLER_0_25_337
*980 FILLER_0_25_349
*981 FILLER_0_25_44
*982 FILLER_0_25_57
*983 FILLER_0_25_84
*984 FILLER_0_26_106
*985 FILLER_0_26_141
*986 FILLER_0_26_15
*987 FILLER_0_26_153
*988 FILLER_0_26_176
*989 FILLER_0_26_188
*990 FILLER_0_26_239
*991 FILLER_0_26_251
*992 FILLER_0_26_253
*993 FILLER_0_26_27
*994 FILLER_0_26_275
*995 FILLER_0_26_29
*996 FILLER_0_26_3
*997 FILLER_0_26_300
*998 FILLER_0_26_309
*999 FILLER_0_26_317
*1000 FILLER_0_26_343
*1001 FILLER_0_26_41
*1002 FILLER_0_26_53
*1003 FILLER_0_26_61
*1004 FILLER_0_26_83
*1005 FILLER_0_27_122
*1006 FILLER_0_27_169
*1007 FILLER_0_27_181
*1008 FILLER_0_27_223
*1009 FILLER_0_27_264
*1010 FILLER_0_27_276
*1011 FILLER_0_27_281
*1012 FILLER_0_27_3
*1013 FILLER_0_27_306
*1014 FILLER_0_27_312
*1015 FILLER_0_27_337
*1016 FILLER_0_27_349
*1017 FILLER_0_27_38
*1018 FILLER_0_27_50
*1019 FILLER_0_27_57
*1020 FILLER_0_27_69
*1021 FILLER_0_27_75
*1022 FILLER_0_27_97
*1023 FILLER_0_28_113
*1024 FILLER_0_28_132
*1025 FILLER_0_28_141
*1026 FILLER_0_28_15
*1027 FILLER_0_28_162
*1028 FILLER_0_28_174
*1029 FILLER_0_28_186
*1030 FILLER_0_28_194
*1031 FILLER_0_28_227
*1032 FILLER_0_28_239
*1033 FILLER_0_28_249
*1034 FILLER_0_28_27
*1035 FILLER_0_28_286
*1036 FILLER_0_28_3
*1037 FILLER_0_28_309
*1038 FILLER_0_28_317
*1039 FILLER_0_28_343
*1040 FILLER_0_28_52
*1041 FILLER_0_28_60
*1042 FILLER_0_28_85
*1043 FILLER_0_28_93
*1044 FILLER_0_29_122
*1045 FILLER_0_29_134
*1046 FILLER_0_29_146
*1047 FILLER_0_29_15
*1048 FILLER_0_29_150
*1049 FILLER_0_29_160
*1050 FILLER_0_29_169
*1051 FILLER_0_29_194
*1052 FILLER_0_29_206
*1053 FILLER_0_29_218
*1054 FILLER_0_29_225
*1055 FILLER_0_29_237
*1056 FILLER_0_29_254
*1057 FILLER_0_29_258
*1058 FILLER_0_29_285
*1059 FILLER_0_29_291
*1060 FILLER_0_29_3
*1061 FILLER_0_29_334
*1062 FILLER_0_29_337
*1063 FILLER_0_29_349
*1064 FILLER_0_29_40
*1065 FILLER_0_29_52
*1066 FILLER_0_29_57
*1067 FILLER_0_29_63
*1068 FILLER_0_29_91
*1069 FILLER_0_2_109
*1070 FILLER_0_2_121
*1071 FILLER_0_2_133
*1072 FILLER_0_2_139
*1073 FILLER_0_2_141
*1074 FILLER_0_2_15
*1075 FILLER_0_2_153
*1076 FILLER_0_2_165
*1077 FILLER_0_2_177
*1078 FILLER_0_2_189
*1079 FILLER_0_2_195
*1080 FILLER_0_2_197
*1081 FILLER_0_2_209
*1082 FILLER_0_2_221
*1083 FILLER_0_2_233
*1084 FILLER_0_2_245
*1085 FILLER_0_2_251
*1086 FILLER_0_2_253
*1087 FILLER_0_2_265
*1088 FILLER_0_2_27
*1089 FILLER_0_2_277
*1090 FILLER_0_2_289
*1091 FILLER_0_2_29
*1092 FILLER_0_2_3
*1093 FILLER_0_2_301
*1094 FILLER_0_2_307
*1095 FILLER_0_2_309
*1096 FILLER_0_2_321
*1097 FILLER_0_2_333
*1098 FILLER_0_2_345
*1099 FILLER_0_2_41
*1100 FILLER_0_2_53
*1101 FILLER_0_2_65
*1102 FILLER_0_2_77
*1103 FILLER_0_2_83
*1104 FILLER_0_2_85
*1105 FILLER_0_2_97
*1106 FILLER_0_30_115
*1107 FILLER_0_30_135
*1108 FILLER_0_30_139
*1109 FILLER_0_30_141
*1110 FILLER_0_30_197
*1111 FILLER_0_30_218
*1112 FILLER_0_30_222
*1113 FILLER_0_30_232
*1114 FILLER_0_30_253
*1115 FILLER_0_30_296
*1116 FILLER_0_30_3
*1117 FILLER_0_30_300
*1118 FILLER_0_30_307
*1119 FILLER_0_30_315
*1120 FILLER_0_30_344
*1121 FILLER_0_30_350
*1122 FILLER_0_30_52
*1123 FILLER_0_30_58
*1124 FILLER_0_31_104
*1125 FILLER_0_31_15
*1126 FILLER_0_31_165
*1127 FILLER_0_31_186
*1128 FILLER_0_31_19
*1129 FILLER_0_31_206
*1130 FILLER_0_31_214
*1131 FILLER_0_31_223
*1132 FILLER_0_31_257
*1133 FILLER_0_31_287
*1134 FILLER_0_31_291
*1135 FILLER_0_31_3
*1136 FILLER_0_31_337
*1137 FILLER_0_31_349
*1138 FILLER_0_31_43
*1139 FILLER_0_31_55
*1140 FILLER_0_31_57
*1141 FILLER_0_31_61
*1142 FILLER_0_32_106
*1143 FILLER_0_32_138
*1144 FILLER_0_32_171
*1145 FILLER_0_32_195
*1146 FILLER_0_32_206
*1147 FILLER_0_32_214
*1148 FILLER_0_32_224
*1149 FILLER_0_32_234
*1150 FILLER_0_32_243
*1151 FILLER_0_32_250
*1152 FILLER_0_32_253
*1153 FILLER_0_32_3
*1154 FILLER_0_32_309
*1155 FILLER_0_32_344
*1156 FILLER_0_32_350
*1157 FILLER_0_32_52
*1158 FILLER_0_32_60
*1159 FILLER_0_32_83
*1160 FILLER_0_33_110
*1161 FILLER_0_33_145
*1162 FILLER_0_33_165
*1163 FILLER_0_33_177
*1164 FILLER_0_33_181
*1165 FILLER_0_33_188
*1166 FILLER_0_33_197
*1167 FILLER_0_33_209
*1168 FILLER_0_33_217
*1169 FILLER_0_33_257
*1170 FILLER_0_33_279
*1171 FILLER_0_33_334
*1172 FILLER_0_33_337
*1173 FILLER_0_33_349
*1174 FILLER_0_33_49
*1175 FILLER_0_33_55
*1176 FILLER_0_33_57
*1177 FILLER_0_33_82
*1178 FILLER_0_33_88
*1179 FILLER_0_34_120
*1180 FILLER_0_34_15
*1181 FILLER_0_34_171
*1182 FILLER_0_34_183
*1183 FILLER_0_34_189
*1184 FILLER_0_34_193
*1185 FILLER_0_34_197
*1186 FILLER_0_34_233
*1187 FILLER_0_34_246
*1188 FILLER_0_34_27
*1189 FILLER_0_34_29
*1190 FILLER_0_34_295
*1191 FILLER_0_34_3
*1192 FILLER_0_34_306
*1193 FILLER_0_34_315
*1194 FILLER_0_34_319
*1195 FILLER_0_34_343
*1196 FILLER_0_34_41
*1197 FILLER_0_34_45
*1198 FILLER_0_34_69
*1199 FILLER_0_34_81
*1200 FILLER_0_34_85
*1201 FILLER_0_34_97
*1202 FILLER_0_35_122
*1203 FILLER_0_35_15
*1204 FILLER_0_35_164
*1205 FILLER_0_35_169
*1206 FILLER_0_35_180
*1207 FILLER_0_35_188
*1208 FILLER_0_35_197
*1209 FILLER_0_35_243
*1210 FILLER_0_35_247
*1211 FILLER_0_35_27
*1212 FILLER_0_35_273
*1213 FILLER_0_35_279
*1214 FILLER_0_35_281
*1215 FILLER_0_35_3
*1216 FILLER_0_35_316
*1217 FILLER_0_35_328
*1218 FILLER_0_35_337
*1219 FILLER_0_35_349
*1220 FILLER_0_35_57
*1221 FILLER_0_35_65
*1222 FILLER_0_35_70
*1223 FILLER_0_35_94
*1224 FILLER_0_36_102
*1225 FILLER_0_36_108
*1226 FILLER_0_36_135
*1227 FILLER_0_36_15
*1228 FILLER_0_36_156
*1229 FILLER_0_36_168
*1230 FILLER_0_36_193
*1231 FILLER_0_36_234
*1232 FILLER_0_36_240
*1233 FILLER_0_36_247
*1234 FILLER_0_36_27
*1235 FILLER_0_36_276
*1236 FILLER_0_36_280
*1237 FILLER_0_36_29
*1238 FILLER_0_36_3
*1239 FILLER_0_36_332
*1240 FILLER_0_36_344
*1241 FILLER_0_36_350
*1242 FILLER_0_36_41
*1243 FILLER_0_36_53
*1244 FILLER_0_36_83
*1245 FILLER_0_36_85
*1246 FILLER_0_36_89
*1247 FILLER_0_36_96
*1248 FILLER_0_37_113
*1249 FILLER_0_37_119
*1250 FILLER_0_37_15
*1251 FILLER_0_37_160
*1252 FILLER_0_37_169
*1253 FILLER_0_37_206
*1254 FILLER_0_37_218
*1255 FILLER_0_37_27
*1256 FILLER_0_37_3
*1257 FILLER_0_37_337
*1258 FILLER_0_37_349
*1259 FILLER_0_37_39
*1260 FILLER_0_37_51
*1261 FILLER_0_37_55
*1262 FILLER_0_37_57
*1263 FILLER_0_37_83
*1264 FILLER_0_38_101
*1265 FILLER_0_38_107
*1266 FILLER_0_38_111
*1267 FILLER_0_38_145
*1268 FILLER_0_38_15
*1269 FILLER_0_38_153
*1270 FILLER_0_38_159
*1271 FILLER_0_38_169
*1272 FILLER_0_38_177
*1273 FILLER_0_38_183
*1274 FILLER_0_38_189
*1275 FILLER_0_38_195
*1276 FILLER_0_38_201
*1277 FILLER_0_38_209
*1278 FILLER_0_38_221
*1279 FILLER_0_38_225
*1280 FILLER_0_38_237
*1281 FILLER_0_38_245
*1282 FILLER_0_38_259
*1283 FILLER_0_38_27
*1284 FILLER_0_38_279
*1285 FILLER_0_38_281
*1286 FILLER_0_38_29
*1287 FILLER_0_38_3
*1288 FILLER_0_38_306
*1289 FILLER_0_38_330
*1290 FILLER_0_38_337
*1291 FILLER_0_38_349
*1292 FILLER_0_38_41
*1293 FILLER_0_38_53
*1294 FILLER_0_38_57
*1295 FILLER_0_38_61
*1296 FILLER_0_38_79
*1297 FILLER_0_38_83
*1298 FILLER_0_38_88
*1299 FILLER_0_38_95
*1300 FILLER_0_3_105
*1301 FILLER_0_3_111
*1302 FILLER_0_3_113
*1303 FILLER_0_3_125
*1304 FILLER_0_3_137
*1305 FILLER_0_3_149
*1306 FILLER_0_3_15
*1307 FILLER_0_3_161
*1308 FILLER_0_3_167
*1309 FILLER_0_3_169
*1310 FILLER_0_3_181
*1311 FILLER_0_3_193
*1312 FILLER_0_3_205
*1313 FILLER_0_3_217
*1314 FILLER_0_3_223
*1315 FILLER_0_3_225
*1316 FILLER_0_3_237
*1317 FILLER_0_3_249
*1318 FILLER_0_3_261
*1319 FILLER_0_3_27
*1320 FILLER_0_3_273
*1321 FILLER_0_3_279
*1322 FILLER_0_3_281
*1323 FILLER_0_3_293
*1324 FILLER_0_3_3
*1325 FILLER_0_3_305
*1326 FILLER_0_3_317
*1327 FILLER_0_3_329
*1328 FILLER_0_3_335
*1329 FILLER_0_3_337
*1330 FILLER_0_3_349
*1331 FILLER_0_3_39
*1332 FILLER_0_3_51
*1333 FILLER_0_3_55
*1334 FILLER_0_3_57
*1335 FILLER_0_3_69
*1336 FILLER_0_3_81
*1337 FILLER_0_3_93
*1338 FILLER_0_4_109
*1339 FILLER_0_4_121
*1340 FILLER_0_4_133
*1341 FILLER_0_4_139
*1342 FILLER_0_4_141
*1343 FILLER_0_4_15
*1344 FILLER_0_4_153
*1345 FILLER_0_4_165
*1346 FILLER_0_4_177
*1347 FILLER_0_4_189
*1348 FILLER_0_4_195
*1349 FILLER_0_4_197
*1350 FILLER_0_4_209
*1351 FILLER_0_4_221
*1352 FILLER_0_4_233
*1353 FILLER_0_4_245
*1354 FILLER_0_4_251
*1355 FILLER_0_4_253
*1356 FILLER_0_4_265
*1357 FILLER_0_4_27
*1358 FILLER_0_4_277
*1359 FILLER_0_4_289
*1360 FILLER_0_4_29
*1361 FILLER_0_4_3
*1362 FILLER_0_4_301
*1363 FILLER_0_4_307
*1364 FILLER_0_4_309
*1365 FILLER_0_4_321
*1366 FILLER_0_4_333
*1367 FILLER_0_4_345
*1368 FILLER_0_4_41
*1369 FILLER_0_4_53
*1370 FILLER_0_4_65
*1371 FILLER_0_4_77
*1372 FILLER_0_4_83
*1373 FILLER_0_4_85
*1374 FILLER_0_4_97
*1375 FILLER_0_5_105
*1376 FILLER_0_5_111
*1377 FILLER_0_5_113
*1378 FILLER_0_5_125
*1379 FILLER_0_5_137
*1380 FILLER_0_5_149
*1381 FILLER_0_5_15
*1382 FILLER_0_5_161
*1383 FILLER_0_5_167
*1384 FILLER_0_5_169
*1385 FILLER_0_5_181
*1386 FILLER_0_5_193
*1387 FILLER_0_5_205
*1388 FILLER_0_5_217
*1389 FILLER_0_5_223
*1390 FILLER_0_5_225
*1391 FILLER_0_5_237
*1392 FILLER_0_5_249
*1393 FILLER_0_5_261
*1394 FILLER_0_5_27
*1395 FILLER_0_5_273
*1396 FILLER_0_5_279
*1397 FILLER_0_5_281
*1398 FILLER_0_5_293
*1399 FILLER_0_5_3
*1400 FILLER_0_5_305
*1401 FILLER_0_5_317
*1402 FILLER_0_5_329
*1403 FILLER_0_5_335
*1404 FILLER_0_5_337
*1405 FILLER_0_5_349
*1406 FILLER_0_5_39
*1407 FILLER_0_5_51
*1408 FILLER_0_5_55
*1409 FILLER_0_5_57
*1410 FILLER_0_5_69
*1411 FILLER_0_5_81
*1412 FILLER_0_5_93
*1413 FILLER_0_6_109
*1414 FILLER_0_6_121
*1415 FILLER_0_6_133
*1416 FILLER_0_6_139
*1417 FILLER_0_6_141
*1418 FILLER_0_6_15
*1419 FILLER_0_6_153
*1420 FILLER_0_6_165
*1421 FILLER_0_6_177
*1422 FILLER_0_6_189
*1423 FILLER_0_6_195
*1424 FILLER_0_6_197
*1425 FILLER_0_6_209
*1426 FILLER_0_6_221
*1427 FILLER_0_6_233
*1428 FILLER_0_6_245
*1429 FILLER_0_6_251
*1430 FILLER_0_6_253
*1431 FILLER_0_6_265
*1432 FILLER_0_6_27
*1433 FILLER_0_6_277
*1434 FILLER_0_6_289
*1435 FILLER_0_6_29
*1436 FILLER_0_6_3
*1437 FILLER_0_6_301
*1438 FILLER_0_6_307
*1439 FILLER_0_6_309
*1440 FILLER_0_6_321
*1441 FILLER_0_6_333
*1442 FILLER_0_6_345
*1443 FILLER_0_6_41
*1444 FILLER_0_6_53
*1445 FILLER_0_6_65
*1446 FILLER_0_6_77
*1447 FILLER_0_6_83
*1448 FILLER_0_6_85
*1449 FILLER_0_6_97
*1450 FILLER_0_7_105
*1451 FILLER_0_7_111
*1452 FILLER_0_7_113
*1453 FILLER_0_7_125
*1454 FILLER_0_7_137
*1455 FILLER_0_7_149
*1456 FILLER_0_7_15
*1457 FILLER_0_7_161
*1458 FILLER_0_7_167
*1459 FILLER_0_7_169
*1460 FILLER_0_7_181
*1461 FILLER_0_7_193
*1462 FILLER_0_7_205
*1463 FILLER_0_7_217
*1464 FILLER_0_7_223
*1465 FILLER_0_7_225
*1466 FILLER_0_7_237
*1467 FILLER_0_7_249
*1468 FILLER_0_7_261
*1469 FILLER_0_7_27