*SPEF "ieee 1481-1999"
*DESIGN "tt_um_urish_ringosc_cnt"
*DATE "11:11:11 Fri 11 11, 1111"
*VENDOR "OpenRCX"
*PROGRAM "Parallel Extraction"
*VERSION "1.0"
*DESIGN_FLOW "NAME_SCOPE LOCAL" "PIN_CAP NONE"
*DIVIDER /
*DELIMITER :
*BUS_DELIMITER []
*T_UNIT 1 NS
*C_UNIT 1 PF
*R_UNIT 1 OHM
*L_UNIT 1 HENRY

*NAME_MAP
*3 clk
*4 ena
*5 rst_n
*6 ui_in[0]
*7 ui_in[1]
*8 ui_in[2]
*9 ui_in[3]
*10 ui_in[4]
*11 ui_in[5]
*12 ui_in[6]
*13 ui_in[7]
*14 uio_in[0]
*15 uio_in[1]
*16 uio_in[2]
*17 uio_in[3]
*18 uio_in[4]
*19 uio_in[5]
*20 uio_in[6]
*21 uio_in[7]
*22 uio_oe[0]
*23 uio_oe[1]
*24 uio_oe[2]
*25 uio_oe[3]
*26 uio_oe[4]
*27 uio_oe[5]
*28 uio_oe[6]
*29 uio_oe[7]
*30 uio_out[0]
*31 uio_out[1]
*32 uio_out[2]
*33 uio_out[3]
*34 uio_out[4]
*35 uio_out[5]
*36 uio_out[6]
*37 uio_out[7]
*38 uo_out[0]
*39 uo_out[1]
*40 uo_out[2]
*41 uo_out[3]
*42 uo_out[4]
*43 uo_out[5]
*44 uo_out[6]
*45 uo_out[7]
*46 _000_
*47 _001_
*48 _002_
*49 _003_
*50 _004_
*51 _005_
*52 _006_
*53 _007_
*54 _008_
*55 _009_
*56 _010_
*57 _011_
*58 _012_
*59 _013_
*60 _014_
*61 _015_
*62 _016_
*63 _017_
*64 _018_
*65 _019_
*66 _020_
*67 _021_
*68 _022_
*69 _023_
*70 _024_
*71 _025_
*72 _026_
*73 _027_
*74 _028_
*75 _029_
*76 _030_
*77 _031_
*78 _032_
*79 _033_
*80 _034_
*81 _035_
*82 _036_
*83 _037_
*84 _038_
*85 _039_
*86 _040_
*87 _041_
*88 _042_
*89 _043_
*90 _044_
*91 _045_
*92 _046_
*93 _047_
*94 _048_
*95 _049_
*96 _050_
*97 _051_
*98 _052_
*99 _053_
*100 _054_
*101 _055_
*102 _056_
*103 _057_
*104 _058_
*105 _059_
*106 _060_
*107 _061_
*108 _062_
*109 _063_
*110 _064_
*111 _065_
*112 _066_
*113 _067_
*114 _068_
*115 _069_
*116 _070_
*117 _071_
*118 _072_
*119 _073_
*120 _074_
*121 _075_
*122 _076_
*123 _077_
*124 _078_
*125 _079_
*126 _080_
*127 _081_
*128 _082_
*129 _083_
*130 _084_
*131 _085_
*132 _086_
*133 _087_
*134 _088_
*135 _089_
*136 _090_
*137 _091_
*138 _092_
*139 _093_
*140 _094_
*141 _095_
*142 _096_
*143 _097_
*144 _098_
*145 _099_
*146 _100_
*147 _101_
*148 _102_
*149 _103_
*150 _104_
*151 _105_
*152 _106_
*153 _107_
*154 _108_
*155 _109_
*156 _110_
*157 _111_
*158 _112_
*159 _113_
*160 _114_
*161 _115_
*162 _116_
*163 _117_
*164 _118_
*165 _119_
*166 _120_
*167 _121_
*168 _122_
*169 _123_
*170 _124_
*171 _125_
*172 _126_
*173 _127_
*174 _128_
*175 _129_
*176 _130_
*177 _131_
*178 _132_
*179 _133_
*180 _134_
*181 _135_
*182 _136_
*183 _137_
*184 _138_
*185 _139_
*186 _140_
*187 _141_
*188 _142_
*189 _143_
*190 _144_
*191 _145_
*192 _146_
*193 _147_
*194 _148_
*195 _149_
*196 _150_
*197 _151_
*198 _152_
*199 _153_
*200 _154_
*201 counter\[0\]\.cnt_bit_I\.clk
*202 counter\[0\]\.cnt_bit_I\.d
*203 counter\[0\]\.cnt_bit_I\.q
*204 counter\[0\]\.cnt_bit_I\.rst_n
*205 counter\[10\]\.cnt_bit_I\.clk
*206 counter\[10\]\.cnt_bit_I\.d
*207 counter\[10\]\.cnt_bit_I\.q
*208 counter\[11\]\.cnt_bit_I\.d
*209 counter\[11\]\.cnt_bit_I\.q
*210 counter\[12\]\.cnt_bit_I\.d
*211 counter\[12\]\.cnt_bit_I\.q
*212 counter\[13\]\.cnt_bit_I\.d
*213 counter\[13\]\.cnt_bit_I\.q
*214 counter\[14\]\.cnt_bit_I\.d
*215 counter\[14\]\.cnt_bit_I\.q
*216 counter\[15\]\.cnt_bit_I\.d
*217 counter\[15\]\.cnt_bit_I\.q
*218 counter\[16\]\.cnt_bit_I\.d
*219 counter\[16\]\.cnt_bit_I\.q
*220 counter\[17\]\.cnt_bit_I\.d
*221 counter\[17\]\.cnt_bit_I\.q
*222 counter\[18\]\.cnt_bit_I\.d
*223 counter\[18\]\.cnt_bit_I\.q
*224 counter\[19\]\.cnt_bit_I\.d
*225 counter\[19\]\.cnt_bit_I\.q
*226 counter\[1\]\.cnt_bit_I\.d
*227 counter\[1\]\.cnt_bit_I\.q
*228 counter\[20\]\.cnt_bit_I\.d
*229 counter\[20\]\.cnt_bit_I\.q
*230 counter\[21\]\.cnt_bit_I\.d
*231 counter\[21\]\.cnt_bit_I\.q
*232 counter\[22\]\.cnt_bit_I\.d
*233 counter\[22\]\.cnt_bit_I\.q
*234 counter\[23\]\.cnt_bit_I\.d
*235 counter\[23\]\.cnt_bit_I\.q
*236 counter\[24\]\.cnt_bit_I\.d
*237 counter\[24\]\.cnt_bit_I\.q
*238 counter\[25\]\.cnt_bit_I\.d
*239 counter\[25\]\.cnt_bit_I\.q
*240 counter\[26\]\.cnt_bit_I\.d
*241 counter\[26\]\.cnt_bit_I\.q
*242 counter\[27\]\.cnt_bit_I\.d
*243 counter\[27\]\.cnt_bit_I\.q
*244 counter\[28\]\.cnt_bit_I\.d
*245 counter\[28\]\.cnt_bit_I\.q
*246 counter\[29\]\.cnt_bit_I\.d
*247 counter\[29\]\.cnt_bit_I\.q
*248 counter\[2\]\.cnt_bit_I\.d
*249 counter\[2\]\.cnt_bit_I\.q
*250 counter\[30\]\.cnt_bit_I\.d
*251 counter\[30\]\.cnt_bit_I\.q
*252 counter\[31\]\.cnt_bit_I\.d
*253 counter\[31\]\.cnt_bit_I\.q
*254 counter\[32\]\.cnt_bit_I\.d
*255 counter\[32\]\.cnt_bit_I\.q
*256 counter\[33\]\.cnt_bit_I\.d
*257 counter\[33\]\.cnt_bit_I\.q
*258 counter\[34\]\.cnt_bit_I\.d
*259 counter\[34\]\.cnt_bit_I\.q
*260 counter\[35\]\.cnt_bit_I\.d
*261 counter\[35\]\.cnt_bit_I\.q
*262 counter\[36\]\.cnt_bit_I\.d
*263 counter\[36\]\.cnt_bit_I\.q
*264 counter\[37\]\.cnt_bit_I\.d
*265 counter\[37\]\.cnt_bit_I\.q
*266 counter\[38\]\.cnt_bit_I\.d
*267 counter\[38\]\.cnt_bit_I\.q
*268 counter\[39\]\.cnt_bit_I\.d
*269 counter\[39\]\.cnt_bit_I\.q
*270 counter\[3\]\.cnt_bit_I\.d
*271 counter\[3\]\.cnt_bit_I\.q
*272 counter\[40\]\.cnt_bit_I\.d
*273 counter\[40\]\.cnt_bit_I\.q
*274 counter\[41\]\.cnt_bit_I\.d
*275 counter\[41\]\.cnt_bit_I\.q
*276 counter\[42\]\.cnt_bit_I\.d
*277 counter\[42\]\.cnt_bit_I\.q
*278 counter\[43\]\.cnt_bit_I\.d
*279 counter\[43\]\.cnt_bit_I\.q
*280 counter\[44\]\.cnt_bit_I\.d
*281 counter\[44\]\.cnt_bit_I\.q
*282 counter\[45\]\.cnt_bit_I\.d
*283 counter\[45\]\.cnt_bit_I\.q
*284 counter\[46\]\.cnt_bit_I\.d
*285 counter\[46\]\.cnt_bit_I\.q
*286 counter\[47\]\.cnt_bit_I\.d
*287 counter\[47\]\.cnt_bit_I\.q
*288 counter\[48\]\.cnt_bit_I\.d
*289 counter\[48\]\.cnt_bit_I\.q
*290 counter\[49\]\.cnt_bit_I\.d
*291 counter\[49\]\.cnt_bit_I\.q
*292 counter\[4\]\.cnt_bit_I\.d
*293 counter\[4\]\.cnt_bit_I\.q
*294 counter\[50\]\.cnt_bit_I\.d
*295 counter\[50\]\.cnt_bit_I\.q
*296 counter\[51\]\.cnt_bit_I\.d
*297 counter\[51\]\.cnt_bit_I\.q
*298 counter\[52\]\.cnt_bit_I\.d
*299 counter\[52\]\.cnt_bit_I\.q
*300 counter\[53\]\.cnt_bit_I\.d
*301 counter\[53\]\.cnt_bit_I\.q
*302 counter\[54\]\.cnt_bit_I\.d
*303 counter\[54\]\.cnt_bit_I\.q
*304 counter\[55\]\.cnt_bit_I\.d
*305 counter\[55\]\.cnt_bit_I\.q
*306 counter\[56\]\.cnt_bit_I\.d
*307 counter\[56\]\.cnt_bit_I\.q
*308 counter\[57\]\.cnt_bit_I\.d
*309 counter\[57\]\.cnt_bit_I\.q
*310 counter\[58\]\.cnt_bit_I\.d
*311 counter\[58\]\.cnt_bit_I\.q
*312 counter\[59\]\.cnt_bit_I\.d
*313 counter\[59\]\.cnt_bit_I\.q
*314 counter\[5\]\.cnt_bit_I\.d
*315 counter\[5\]\.cnt_bit_I\.q
*316 counter\[60\]\.cnt_bit_I\.d
*317 counter\[60\]\.cnt_bit_I\.q
*318 counter\[61\]\.cnt_bit_I\.d
*319 counter\[61\]\.cnt_bit_I\.q
*320 counter\[62\]\.cnt_bit_I\.d
*321 counter\[62\]\.cnt_bit_I\.q
*322 counter\[63\]\.cnt_bit_I\.d
*323 counter\[63\]\.cnt_bit_I\.q
*324 counter\[6\]\.cnt_bit_I\.d
*325 counter\[6\]\.cnt_bit_I\.q
*326 counter\[7\]\.cnt_bit_I\.d
*327 counter\[7\]\.cnt_bit_I\.q
*328 counter\[8\]\.cnt_bit_I\.d
*329 counter\[8\]\.cnt_bit_I\.q
*330 counter\[9\]\.cnt_bit_I\.q
*331 net1
*332 net10
*333 net11
*334 net12
*335 net13
*336 net14
*337 net15
*338 net16
*339 net17
*340 net18
*341 net19
*342 net2
*343 net20
*344 net21
*345 net22
*346 net23
*347 net24
*348 net25
*349 net26
*350 net27
*351 net28
*352 net29
*353 net3
*354 net30
*355 net31
*356 net32
*357 net33
*358 net34
*359 net35
*360 net36
*361 net37
*362 net38
*363 net39
*364 net4
*365 net40
*366 net41
*367 net42
*368 net43
*369 net44
*370 net45
*371 net46
*372 net47
*373 net48
*374 net49
*375 net5
*376 net50
*377 net51
*378 net52
*379 net53
*380 net54
*381 net55
*382 net56
*383 net57
*384 net58
*385 net59
*386 net6
*387 net60
*388 net61
*389 net62
*390 net63
*391 net64
*392 net7
*393 net8
*394 net9
*395 ringosc\[0\]\.inv\.a
*396 ringosc\[10\]\.inv\.a
*397 ringosc\[10\]\.inv\.y
*398 ringosc\[11\]\.inv\.y
*399 ringosc\[12\]\.inv\.y
*400 ringosc\[1\]\.inv\.y
*401 ringosc\[2\]\.inv\.y
*402 ringosc\[3\]\.inv\.y
*403 ringosc\[4\]\.inv\.y
*404 ringosc\[5\]\.inv\.y
*405 ringosc\[6\]\.inv\.y
*406 ringosc\[7\]\.inv\.y
*407 ringosc\[8\]\.inv\.y
*408 FILLER_0_0_109
*409 FILLER_0_0_113
*410 FILLER_0_0_125
*411 FILLER_0_0_137
*412 FILLER_0_0_141
*413 FILLER_0_0_15
*414 FILLER_0_0_153
*415 FILLER_0_0_165
*416 FILLER_0_0_169
*417 FILLER_0_0_181
*418 FILLER_0_0_193
*419 FILLER_0_0_197
*420 FILLER_0_0_209
*421 FILLER_0_0_221
*422 FILLER_0_0_225
*423 FILLER_0_0_237
*424 FILLER_0_0_249
*425 FILLER_0_0_253
*426 FILLER_0_0_265
*427 FILLER_0_0_27
*428 FILLER_0_0_277
*429 FILLER_0_0_281
*430 FILLER_0_0_29
*431 FILLER_0_0_293
*432 FILLER_0_0_3
*433 FILLER_0_0_305
*434 FILLER_0_0_309
*435 FILLER_0_0_321
*436 FILLER_0_0_41
*437 FILLER_0_0_53
*438 FILLER_0_0_57
*439 FILLER_0_0_69
*440 FILLER_0_0_81
*441 FILLER_0_0_85
*442 FILLER_0_0_97
*443 FILLER_0_10_109
*444 FILLER_0_10_121
*445 FILLER_0_10_133
*446 FILLER_0_10_139
*447 FILLER_0_10_141
*448 FILLER_0_10_15
*449 FILLER_0_10_153
*450 FILLER_0_10_165
*451 FILLER_0_10_177
*452 FILLER_0_10_189
*453 FILLER_0_10_195
*454 FILLER_0_10_197
*455 FILLER_0_10_209
*456 FILLER_0_10_221
*457 FILLER_0_10_233
*458 FILLER_0_10_245
*459 FILLER_0_10_251
*460 FILLER_0_10_253
*461 FILLER_0_10_265
*462 FILLER_0_10_27
*463 FILLER_0_10_277
*464 FILLER_0_10_289
*465 FILLER_0_10_29
*466 FILLER_0_10_3
*467 FILLER_0_10_301
*468 FILLER_0_10_307
*469 FILLER_0_10_309
*470 FILLER_0_10_321
*471 FILLER_0_10_41
*472 FILLER_0_10_53
*473 FILLER_0_10_65
*474 FILLER_0_10_77
*475 FILLER_0_10_83
*476 FILLER_0_10_85
*477 FILLER_0_10_97
*478 FILLER_0_11_105
*479 FILLER_0_11_111
*480 FILLER_0_11_113
*481 FILLER_0_11_125
*482 FILLER_0_11_137
*483 FILLER_0_11_149
*484 FILLER_0_11_15
*485 FILLER_0_11_161
*486 FILLER_0_11_167
*487 FILLER_0_11_169
*488 FILLER_0_11_181
*489 FILLER_0_11_193
*490 FILLER_0_11_205
*491 FILLER_0_11_217
*492 FILLER_0_11_223
*493 FILLER_0_11_225
*494 FILLER_0_11_237
*495 FILLER_0_11_249
*496 FILLER_0_11_261
*497 FILLER_0_11_27
*498 FILLER_0_11_273
*499 FILLER_0_11_279
*500 FILLER_0_11_281
*501 FILLER_0_11_293
*502 FILLER_0_11_3
*503 FILLER_0_11_305
*504 FILLER_0_11_317
*505 FILLER_0_11_325
*506 FILLER_0_11_39
*507 FILLER_0_11_51
*508 FILLER_0_11_55
*509 FILLER_0_11_57
*510 FILLER_0_11_69
*511 FILLER_0_11_81
*512 FILLER_0_11_93
*513 FILLER_0_12_109
*514 FILLER_0_12_121
*515 FILLER_0_12_133
*516 FILLER_0_12_139
*517 FILLER_0_12_141
*518 FILLER_0_12_15
*519 FILLER_0_12_153
*520 FILLER_0_12_165
*521 FILLER_0_12_177
*522 FILLER_0_12_189
*523 FILLER_0_12_195
*524 FILLER_0_12_197
*525 FILLER_0_12_209
*526 FILLER_0_12_221
*527 FILLER_0_12_233
*528 FILLER_0_12_245
*529 FILLER_0_12_251
*530 FILLER_0_12_253
*531 FILLER_0_12_265
*532 FILLER_0_12_27
*533 FILLER_0_12_277
*534 FILLER_0_12_289
*535 FILLER_0_12_29
*536 FILLER_0_12_3
*537 FILLER_0_12_301
*538 FILLER_0_12_307
*539 FILLER_0_12_309
*540 FILLER_0_12_321
*541 FILLER_0_12_41
*542 FILLER_0_12_53
*543 FILLER_0_12_65
*544 FILLER_0_12_77
*545 FILLER_0_12_83
*546 FILLER_0_12_85
*547 FILLER_0_12_97
*548 FILLER_0_13_105
*549 FILLER_0_13_111
*550 FILLER_0_13_113
*551 FILLER_0_13_125
*552 FILLER_0_13_137
*553 FILLER_0_13_149
*554 FILLER_0_13_15
*555 FILLER_0_13_161
*556 FILLER_0_13_167
*557 FILLER_0_13_169
*558 FILLER_0_13_181
*559 FILLER_0_13_193
*560 FILLER_0_13_205
*561 FILLER_0_13_217
*562 FILLER_0_13_223
*563 FILLER_0_13_225
*564 FILLER_0_13_237
*565 FILLER_0_13_249
*566 FILLER_0_13_261
*567 FILLER_0_13_27
*568 FILLER_0_13_273
*569 FILLER_0_13_279
*570 FILLER_0_13_281
*571 FILLER_0_13_293
*572 FILLER_0_13_3
*573 FILLER_0_13_305
*574 FILLER_0_13_317
*575 FILLER_0_13_325
*576 FILLER_0_13_39
*577 FILLER_0_13_51
*578 FILLER_0_13_55
*579 FILLER_0_13_57
*580 FILLER_0_13_69
*581 FILLER_0_13_81
*582 FILLER_0_13_93
*583 FILLER_0_14_109
*584 FILLER_0_14_121
*585 FILLER_0_14_133
*586 FILLER_0_14_139
*587 FILLER_0_14_141
*588 FILLER_0_14_15
*589 FILLER_0_14_153
*590 FILLER_0_14_165
*591 FILLER_0_14_177
*592 FILLER_0_14_189
*593 FILLER_0_14_195
*594 FILLER_0_14_197
*595 FILLER_0_14_209
*596 FILLER_0_14_221
*597 FILLER_0_14_233
*598 FILLER_0_14_245
*599 FILLER_0_14_251
*600 FILLER_0_14_253
*601 FILLER_0_14_265
*602 FILLER_0_14_27
*603 FILLER_0_14_277
*604 FILLER_0_14_289
*605 FILLER_0_14_29
*606 FILLER_0_14_3
*607 FILLER_0_14_301
*608 FILLER_0_14_307
*609 FILLER_0_14_309
*610 FILLER_0_14_321
*611 FILLER_0_14_41
*612 FILLER_0_14_53
*613 FILLER_0_14_65
*614 FILLER_0_14_77
*615 FILLER_0_14_83
*616 FILLER_0_14_85
*617 FILLER_0_14_97
*618 FILLER_0_15_105
*619 FILLER_0_15_111
*620 FILLER_0_15_113
*621 FILLER_0_15_125
*622 FILLER_0_15_137
*623 FILLER_0_15_149
*624 FILLER_0_15_15
*625 FILLER_0_15_161
*626 FILLER_0_15_167
*627 FILLER_0_15_169
*628 FILLER_0_15_181
*629 FILLER_0_15_193
*630 FILLER_0_15_205
*631 FILLER_0_15_217
*632 FILLER_0_15_223
*633 FILLER_0_15_225
*634 FILLER_0_15_237
*635 FILLER_0_15_249
*636 FILLER_0_15_261
*637 FILLER_0_15_27
*638 FILLER_0_15_273
*639 FILLER_0_15_279
*640 FILLER_0_15_281
*641 FILLER_0_15_293
*642 FILLER_0_15_3
*643 FILLER_0_15_305
*644 FILLER_0_15_317
*645 FILLER_0_15_325
*646 FILLER_0_15_39
*647 FILLER_0_15_51
*648 FILLER_0_15_55
*649 FILLER_0_15_57
*650 FILLER_0_15_69
*651 FILLER_0_15_81
*652 FILLER_0_15_93
*653 FILLER_0_16_109
*654 FILLER_0_16_121
*655 FILLER_0_16_133
*656 FILLER_0_16_139
*657 FILLER_0_16_141
*658 FILLER_0_16_15
*659 FILLER_0_16_153
*660 FILLER_0_16_165
*661 FILLER_0_16_177
*662 FILLER_0_16_189
*663 FILLER_0_16_195
*664 FILLER_0_16_197
*665 FILLER_0_16_209
*666 FILLER_0_16_221
*667 FILLER_0_16_233
*668 FILLER_0_16_245
*669 FILLER_0_16_251
*670 FILLER_0_16_253
*671 FILLER_0_16_265
*672 FILLER_0_16_27
*673 FILLER_0_16_277
*674 FILLER_0_16_289
*675 FILLER_0_16_29
*676 FILLER_0_16_3
*677 FILLER_0_16_301
*678 FILLER_0_16_307
*679 FILLER_0_16_309
*680 FILLER_0_16_321
*681 FILLER_0_16_41
*682 FILLER_0_16_53
*683 FILLER_0_16_65
*684 FILLER_0_16_77
*685 FILLER_0_16_83
*686 FILLER_0_16_85
*687 FILLER_0_16_97
*688 FILLER_0_17_105
*689 FILLER_0_17_111
*690 FILLER_0_17_113
*691 FILLER_0_17_117
*692 FILLER_0_17_141
*693 FILLER_0_17_15
*694 FILLER_0_17_169
*695 FILLER_0_17_221
*696 FILLER_0_17_225
*697 FILLER_0_17_237
*698 FILLER_0_17_249
*699 FILLER_0_17_261
*700 FILLER_0_17_27
*701 FILLER_0_17_273
*702 FILLER_0_17_279
*703 FILLER_0_17_281
*704 FILLER_0_17_293
*705 FILLER_0_17_3
*706 FILLER_0_17_305
*707 FILLER_0_17_317
*708 FILLER_0_17_325
*709 FILLER_0_17_39
*710 FILLER_0_17_51
*711 FILLER_0_17_55
*712 FILLER_0_17_57
*713 FILLER_0_17_69
*714 FILLER_0_17_81
*715 FILLER_0_17_93
*716 FILLER_0_18_141
*717 FILLER_0_18_15
*718 FILLER_0_18_191
*719 FILLER_0_18_195
*720 FILLER_0_18_243
*721 FILLER_0_18_251
*722 FILLER_0_18_253
*723 FILLER_0_18_265
*724 FILLER_0_18_27
*725 FILLER_0_18_277
*726 FILLER_0_18_289
*727 FILLER_0_18_29
*728 FILLER_0_18_3
*729 FILLER_0_18_301
*730 FILLER_0_18_307
*731 FILLER_0_18_309
*732 FILLER_0_18_321
*733 FILLER_0_18_41
*734 FILLER_0_18_53
*735 FILLER_0_18_65
*736 FILLER_0_18_77
*737 FILLER_0_18_83
*738 FILLER_0_18_85
*739 FILLER_0_18_93
*740 FILLER_0_19_136
*741 FILLER_0_19_15
*742 FILLER_0_19_161
*743 FILLER_0_19_167
*744 FILLER_0_19_169
*745 FILLER_0_19_181
*746 FILLER_0_19_193
*747 FILLER_0_19_205
*748 FILLER_0_19_217
*749 FILLER_0_19_223
*750 FILLER_0_19_27
*751 FILLER_0_19_271
*752 FILLER_0_19_279
*753 FILLER_0_19_281
*754 FILLER_0_19_293
*755 FILLER_0_19_3
*756 FILLER_0_19_305
*757 FILLER_0_19_317
*758 FILLER_0_19_325
*759 FILLER_0_19_39
*760 FILLER_0_19_51
*761 FILLER_0_19_55
*762 FILLER_0_19_57
*763 FILLER_0_19_69
*764 FILLER_0_19_81
*765 FILLER_0_1_105
*766 FILLER_0_1_111
*767 FILLER_0_1_113
*768 FILLER_0_1_125
*769 FILLER_0_1_137
*770 FILLER_0_1_149
*771 FILLER_0_1_15
*772 FILLER_0_1_161
*773 FILLER_0_1_167
*774 FILLER_0_1_169
*775 FILLER_0_1_181
*776 FILLER_0_1_193
*777 FILLER_0_1_205
*778 FILLER_0_1_217
*779 FILLER_0_1_223
*780 FILLER_0_1_225
*781 FILLER_0_1_237
*782 FILLER_0_1_249
*783 FILLER_0_1_261
*784 FILLER_0_1_27
*785 FILLER_0_1_273
*786 FILLER_0_1_279
*787 FILLER_0_1_281
*788 FILLER_0_1_293
*789 FILLER_0_1_3
*790 FILLER_0_1_305
*791 FILLER_0_1_317
*792 FILLER_0_1_325
*793 FILLER_0_1_39
*794 FILLER_0_1_51
*795 FILLER_0_1_55
*796 FILLER_0_1_57
*797 FILLER_0_1_69
*798 FILLER_0_1_81
*799 FILLER_0_1_93
*800 FILLER_0_20_108
*801 FILLER_0_20_120
*802 FILLER_0_20_132
*803 FILLER_0_20_141
*804 FILLER_0_20_15
*805 FILLER_0_20_153
*806 FILLER_0_20_165
*807 FILLER_0_20_177
*808 FILLER_0_20_189
*809 FILLER_0_20_195
*810 FILLER_0_20_218
*811 FILLER_0_20_247
*812 FILLER_0_20_251
*813 FILLER_0_20_27
*814 FILLER_0_20_276
*815 FILLER_0_20_288
*816 FILLER_0_20_29
*817 FILLER_0_20_3
*818 FILLER_0_20_300
*819 FILLER_0_20_309
*820 FILLER_0_20_321
*821 FILLER_0_20_41
*822 FILLER_0_20_53
*823 FILLER_0_21_101
*824 FILLER_0_21_109
*825 FILLER_0_21_113
*826 FILLER_0_21_119
*827 FILLER_0_21_15
*828 FILLER_0_21_162
*829 FILLER_0_21_169
*830 FILLER_0_21_214
*831 FILLER_0_21_222
*832 FILLER_0_21_246
*833 FILLER_0_21_27
*834 FILLER_0_21_277
*835 FILLER_0_21_3
*836 FILLER_0_21_304
*837 FILLER_0_21_316
*838 FILLER_0_21_324
*839 FILLER_0_21_39
*840 FILLER_0_21_51
*841 FILLER_0_21_55
*842 FILLER_0_21_57
*843 FILLER_0_21_69
*844 FILLER_0_21_94
*845 FILLER_0_22_141
*846 FILLER_0_22_15
*847 FILLER_0_22_187
*848 FILLER_0_22_195
*849 FILLER_0_22_239
*850 FILLER_0_22_251
*851 FILLER_0_22_253
*852 FILLER_0_22_261
*853 FILLER_0_22_27
*854 FILLER_0_22_287
*855 FILLER_0_22_29
*856 FILLER_0_22_299
*857 FILLER_0_22_3
*858 FILLER_0_22_307
*859 FILLER_0_22_309
*860 FILLER_0_22_321
*861 FILLER_0_22_41
*862 FILLER_0_22_53
*863 FILLER_0_22_78
*864 FILLER_0_22_85
*865 FILLER_0_22_97
*866 FILLER_0_23_134
*867 FILLER_0_23_156
*868 FILLER_0_23_190
*869 FILLER_0_23_198
*870 FILLER_0_23_222
*871 FILLER_0_23_225
*872 FILLER_0_23_270
*873 FILLER_0_23_278
*874 FILLER_0_23_281
*875 FILLER_0_23_289
*876 FILLER_0_23_3
*877 FILLER_0_23_314
*878 FILLER_0_23_326
*879 FILLER_0_23_52
*880 FILLER_0_23_80
*881 FILLER_0_23_88
*882 FILLER_0_24_125
*883 FILLER_0_24_137
*884 FILLER_0_24_141
*885 FILLER_0_24_15
*886 FILLER_0_24_152
*887 FILLER_0_24_164
*888 FILLER_0_24_176
*889 FILLER_0_24_184
*890 FILLER_0_24_197
*891 FILLER_0_24_220
*892 FILLER_0_24_232
*893 FILLER_0_24_244
*894 FILLER_0_24_27
*895 FILLER_0_24_29
*896 FILLER_0_24_295
*897 FILLER_0_24_3
*898 FILLER_0_24_307
*899 FILLER_0_24_309
*900 FILLER_0_24_321
*901 FILLER_0_24_41
*902 FILLER_0_24_67
*903 FILLER_0_24_79
*904 FILLER_0_24_83
*905 FILLER_0_24_85
*906 FILLER_0_24_93
*907 FILLER_0_25_11
*908 FILLER_0_25_110
*909 FILLER_0_25_122
*910 FILLER_0_25_137
*911 FILLER_0_25_161
*912 FILLER_0_25_167
*913 FILLER_0_25_169
*914 FILLER_0_25_221
*915 FILLER_0_25_264
*916 FILLER_0_25_276
*917 FILLER_0_25_281
*918 FILLER_0_25_293
*919 FILLER_0_25_3
*920 FILLER_0_25_322
*921 FILLER_0_25_326
*922 FILLER_0_25_35
*923 FILLER_0_25_47
*924 FILLER_0_25_55
*925 FILLER_0_25_57
*926 FILLER_0_25_61
*927 FILLER_0_25_83
*928 FILLER_0_26_106
*929 FILLER_0_26_116
*930 FILLER_0_26_141
*931 FILLER_0_26_15
*932 FILLER_0_26_168
*933 FILLER_0_26_172
*934 FILLER_0_26_194
*935 FILLER_0_26_236
*936 FILLER_0_26_248
*937 FILLER_0_26_253
*938 FILLER_0_26_261
*939 FILLER_0_26_27
*940 FILLER_0_26_283
*941 FILLER_0_26_3
*942 FILLER_0_26_309
*943 FILLER_0_26_321
*944 FILLER_0_26_52
*945 FILLER_0_26_60
*946 FILLER_0_27_104
*947 FILLER_0_27_11
*948 FILLER_0_27_122
*949 FILLER_0_27_130
*950 FILLER_0_27_154
*951 FILLER_0_27_166
*952 FILLER_0_27_169
*953 FILLER_0_27_181
*954 FILLER_0_27_210
*955 FILLER_0_27_222
*956 FILLER_0_27_230
*957 FILLER_0_27_236
*958 FILLER_0_27_258
*959 FILLER_0_27_287
*960 FILLER_0_27_295
*961 FILLER_0_27_3
*962 FILLER_0_27_320
*963 FILLER_0_27_326
*964 FILLER_0_27_37
*965 FILLER_0_27_49
*966 FILLER_0_27_55
*967 FILLER_0_27_57
*968 FILLER_0_27_82
*969 FILLER_0_28_123
*970 FILLER_0_28_136
*971 FILLER_0_28_15
*972 FILLER_0_28_150
*973 FILLER_0_28_179
*974 FILLER_0_28_191
*975 FILLER_0_28_195
*976 FILLER_0_28_197
*977 FILLER_0_28_214
*978 FILLER_0_28_227
*979 FILLER_0_28_253
*980 FILLER_0_28_261
*981 FILLER_0_28_27
*982 FILLER_0_28_3
*983 FILLER_0_28_306
*984 FILLER_0_28_309
*985 FILLER_0_28_321
*986 FILLER_0_28_52
*987 FILLER_0_28_60
*988 FILLER_0_28_85
*989 FILLER_0_28_93
*990 FILLER_0_29_101
*991 FILLER_0_29_111
*992 FILLER_0_29_131
*993 FILLER_0_29_15
*994 FILLER_0_29_163
*995 FILLER_0_29_167
*996 FILLER_0_29_190
*997 FILLER_0_29_202
*998 FILLER_0_29_267
*999 FILLER_0_29_279
*1000 FILLER_0_29_281
*1001 FILLER_0_29_293
*1002 FILLER_0_29_3
*1003 FILLER_0_29_320
*1004 FILLER_0_29_326
*1005 FILLER_0_29_44
*1006 FILLER_0_29_57
*1007 FILLER_0_2_109
*1008 FILLER_0_2_121
*1009 FILLER_0_2_133
*1010 FILLER_0_2_139
*1011 FILLER_0_2_141
*1012 FILLER_0_2_15
*1013 FILLER_0_2_153
*1014 FILLER_0_2_165
*1015 FILLER_0_2_177
*1016 FILLER_0_2_189
*1017 FILLER_0_2_195
*1018 FILLER_0_2_197
*1019 FILLER_0_2_209
*1020 FILLER_0_2_221
*1021 FILLER_0_2_233
*1022 FILLER_0_2_245
*1023 FILLER_0_2_251
*1024 FILLER_0_2_253
*1025 FILLER_0_2_265
*1026 FILLER_0_2_27
*1027 FILLER_0_2_277
*1028 FILLER_0_2_289
*1029 FILLER_0_2_29
*1030 FILLER_0_2_3
*1031 FILLER_0_2_301
*1032 FILLER_0_2_307
*1033 FILLER_0_2_309
*1034 FILLER_0_2_321
*1035 FILLER_0_2_41
*1036 FILLER_0_2_53
*1037 FILLER_0_2_65
*1038 FILLER_0_2_77
*1039 FILLER_0_2_83
*1040 FILLER_0_2_85
*1041 FILLER_0_2_97
*1042 FILLER_0_30_101
*1043 FILLER_0_30_129
*1044 FILLER_0_30_167
*1045 FILLER_0_30_179
*1046 FILLER_0_30_190
*1047 FILLER_0_30_197
*1048 FILLER_0_30_253
*1049 FILLER_0_30_261
*1050 FILLER_0_30_3
*1051 FILLER_0_30_309
*1052 FILLER_0_30_321
*1053 FILLER_0_30_52
*1054 FILLER_0_30_58
*1055 FILLER_0_30_80
*1056 FILLER_0_30_85
*1057 FILLER_0_30_97
*1058 FILLER_0_31_101
*1059 FILLER_0_31_122
*1060 FILLER_0_31_126
*1061 FILLER_0_31_15
*1062 FILLER_0_31_157
*1063 FILLER_0_31_178
*1064 FILLER_0_31_190
*1065 FILLER_0_31_225
*1066 FILLER_0_31_281
*1067 FILLER_0_31_293
*1068 FILLER_0_31_297
*1069 FILLER_0_31_3
*1070 FILLER_0_31_321
*1071 FILLER_0_31_39
*1072 FILLER_0_31_51
*1073 FILLER_0_31_55
*1074 FILLER_0_31_57
*1075 FILLER_0_32_128
*1076 FILLER_0_32_155
*1077 FILLER_0_32_168
*1078 FILLER_0_32_188
*1079 FILLER_0_32_197
*1080 FILLER_0_32_203
*1081 FILLER_0_32_262
*1082 FILLER_0_32_3
*1083 FILLER_0_32_309
*1084 FILLER_0_32_321
*1085 FILLER_0_32_52
*1086 FILLER_0_32_79
*1087 FILLER_0_32_83
*1088 FILLER_0_32_85
*1089 FILLER_0_32_97
*1090 FILLER_0_33_102
*1091 FILLER_0_33_110
*1092 FILLER_0_33_120
*1093 FILLER_0_33_15
*1094 FILLER_0_33_155
*1095 FILLER_0_33_167
*1096 FILLER_0_33_169
*1097 FILLER_0_33_173
*1098 FILLER_0_33_177
*1099 FILLER_0_33_189
*1100 FILLER_0_33_215
*1101 FILLER_0_33_222
*1102 FILLER_0_33_231
*1103 FILLER_0_33_258
*1104 FILLER_0_33_27
*1105 FILLER_0_33_281
*1106 FILLER_0_33_3
*1107 FILLER_0_33_307
*1108 FILLER_0_33_319
*1109 FILLER_0_33_57
*1110 FILLER_0_33_79
*1111 FILLER_0_34_149
*1112 FILLER_0_34_15
*1113 FILLER_0_34_161
*1114 FILLER_0_34_169
*1115 FILLER_0_34_181
*1116 FILLER_0_34_185
*1117 FILLER_0_34_214
*1118 FILLER_0_34_226
*1119 FILLER_0_34_230
*1120 FILLER_0_34_257
*1121 FILLER_0_34_269
*1122 FILLER_0_34_27
*1123 FILLER_0_34_29
*1124 FILLER_0_34_295
*1125 FILLER_0_34_3
*1126 FILLER_0_34_307
*1127 FILLER_0_34_309
*1128 FILLER_0_34_321
*1129 FILLER_0_34_41
*1130 FILLER_0_34_66
*1131 FILLER_0_34_78
*1132 FILLER_0_34_85
*1133 FILLER_0_35_104
*1134 FILLER_0_35_111
*1135 FILLER_0_35_113
*1136 FILLER_0_35_15
*1137 FILLER_0_35_151
*1138 FILLER_0_35_162
*1139 FILLER_0_35_169
*1140 FILLER_0_35_181
*1141 FILLER_0_35_246
*1142 FILLER_0_35_27
*1143 FILLER_0_35_278
*1144 FILLER_0_35_285
*1145 FILLER_0_35_293
*1146 FILLER_0_35_3
*1147 FILLER_0_35_318
*1148 FILLER_0_35_326
*1149 FILLER_0_35_39
*1150 FILLER_0_35_51
*1151 FILLER_0_35_55
*1152 FILLER_0_36_139
*1153 FILLER_0_36_147
*1154 FILLER_0_36_15
*1155 FILLER_0_36_194
*1156 FILLER_0_36_211
*1157 FILLER_0_36_238
*1158 FILLER_0_36_250
*1159 FILLER_0_36_253
*1160 FILLER_0_36_27
*1161 FILLER_0_36_29
*1162 FILLER_0_36_3
*1163 FILLER_0_36_301
*1164 FILLER_0_36_307
*1165 FILLER_0_36_309
*1166 FILLER_0_36_321
*1167 FILLER_0_36_41
*1168 FILLER_0_36_49
*1169 FILLER_0_36_54
*1170 FILLER_0_36_85
*1171 FILLER_0_36_90
*1172 FILLER_0_37_144
*1173 FILLER_0_37_15
*1174 FILLER_0_37_169
*1175 FILLER_0_37_173
*1176 FILLER_0_37_190
*1177 FILLER_0_37_222
*1178 FILLER_0_37_27
*1179 FILLER_0_37_277
*1180 FILLER_0_37_281
*1181 FILLER_0_37_293
*1182 FILLER_0_37_3
*1183 FILLER_0_37_305
*1184 FILLER_0_37_317
*1185 FILLER_0_37_325
*1186 FILLER_0_37_39
*1187 FILLER_0_37_57
*1188 FILLER_0_37_80
*1189 FILLER_0_38_113
*1190 FILLER_0_38_128
*1191 FILLER_0_38_147
*1192 FILLER_0_38_15
*1193 FILLER_0_38_153
*1194 FILLER_0_38_159
*1195 FILLER_0_38_186
*1196 FILLER_0_38_194
*1197 FILLER_0_38_197
*1198 FILLER_0_38_215
*1199 FILLER_0_38_223
*1200 FILLER_0_38_225
*1201 FILLER_0_38_232
*1202 FILLER_0_38_251
*1203 FILLER_0_38_261
*1204 FILLER_0_38_266
*1205 FILLER_0_38_27
*1206 FILLER_0_38_272
*1207 FILLER_0_38_278
*1208 FILLER_0_38_281
*1209 FILLER_0_38_29
*1210 FILLER_0_38_293
*1211 FILLER_0_38_3
*1212 FILLER_0_38_305
*1213 FILLER_0_38_309
*1214 FILLER_0_38_321
*1215 FILLER_0_38_41
*1216 FILLER_0_38_57
*1217 FILLER_0_38_65
*1218 FILLER_0_38_71
*1219 FILLER_0_38_85
*1220 FILLER_0_38_96
*1221 FILLER_0_3_105
*1222 FILLER_0_3_111
*1223 FILLER_0_3_113
*1224 FILLER_0_3_125
*1225 FILLER_0_3_137
*1226 FILLER_0_3_149
*1227 FILLER_0_3_15
*1228 FILLER_0_3_161
*1229 FILLER_0_3_167
*1230 FILLER_0_3_169
*1231 FILLER_0_3_181
*1232 FILLER_0_3_193
*1233 FILLER_0_3_205
*1234 FILLER_0_3_217
*1235 FILLER_0_3_223
*1236 FILLER_0_3_225
*1237 FILLER_0_3_237
*1238 FILLER_0_3_249
*1239 FILLER_0_3_261
*1240 FILLER_0_3_27
*1241 FILLER_0_3_273
*1242 FILLER_0_3_279
*1243 FILLER_0_3_281
*1244 FILLER_0_3_293
*1245 FILLER_0_3_3
*1246 FILLER_0_3_305
*1247 FILLER_0_3_317
*1248 FILLER_0_3_325
*1249 FILLER_0_3_39
*1250 FILLER_0_3_51
*1251 FILLER_0_3_55
*1252 FILLER_0_3_57
*1253 FILLER_0_3_69
*1254 FILLER_0_3_81
*1255 FILLER_0_3_93
*1256 FILLER_0_4_109
*1257 FILLER_0_4_121
*1258 FILLER_0_4_133
*1259 FILLER_0_4_139
*1260 FILLER_0_4_141
*1261 FILLER_0_4_15
*1262 FILLER_0_4_153
*1263 FILLER_0_4_165
*1264 FILLER_0_4_177
*1265 FILLER_0_4_189
*1266 FILLER_0_4_195
*1267 FILLER_0_4_197
*1268 FILLER_0_4_209
*1269 FILLER_0_4_221
*1270 FILLER_0_4_233
*1271 FILLER_0_4_245
*1272 FILLER_0_4_251
*1273 FILLER_0_4_253
*1274 FILLER_0_4_265
*1275 FILLER_0_4_27
*1276 FILLER_0_4_277
*1277 FILLER_0_4_289
*1278 FILLER_0_4_29
*1279 FILLER_0_4_3
*1280 FILLER_0_4_301
*1281 FILLER_0_4_307
*1282 FILLER_0_4_309
*1283 FILLER_0_4_321
*1284 FILLER_0_4_41
*1285 FILLER_0_4_53
*1286 FILLER_0_4_65
*1287 FILLER_0_4_77
*1288 FILLER_0_4_83
*1289 FILLER_0_4_85
*1290 FILLER_0_4_97
*1291 FILLER_0_5_105
*1292 FILLER_0_5_111
*1293 FILLER_0_5_113
*1294 FILLER_0_5_125
*1295 FILLER_0_5_137
*1296 FILLER_0_5_149
*1297 FILLER_0_5_15
*1298 FILLER_0_5_161
*1299 FILLER_0_5_167
*1300 FILLER_0_5_169
*1301 FILLER_0_5_181
*1302 FILLER_0_5_193
*1303 FILLER_0_5_205
*1304 FILLER_0_5_217
*1305 FILLER_0_5_223
*1306 FILLER_0_5_225
*1307 FILLER_0_5_237
*1308 FILLER_0_5_249
*1309 FILLER_0_5_261
*1310 FILLER_0_5_27
*1311 FILLER_0_5_273
*1312 FILLER_0_5_279
*1313 FILLER_0_5_281
*1314 FILLER_0_5_293
*1315 FILLER_0_5_3
*1316 FILLER_0_5_305
*1317 FILLER_0_5_317
*1318 FILLER_0_5_325
*1319 FILLER_0_5_39
*1320 FILLER_0_5_51
*1321 FILLER_0_5_55
*1322 FILLER_0_5_57
*1323 FILLER_0_5_69
*1324 FILLER_0_5_81
*1325 FILLER_0_5_93
*1326 FILLER_0_6_109
*1327 FILLER_0_6_121
*1328 FILLER_0_6_133
*1329 FILLER_0_6_139
*1330 FILLER_0_6_141
*1331 FILLER_0_6_15
*1332 FILLER_0_6_153
*1333 FILLER_0_6_165
*1334 FILLER_0_6_177
*1335 FILLER_0_6_189
*1336 FILLER_0_6_195
*1337 FILLER_0_6_197
*1338 FILLER_0_6_209
*1339 FILLER_0_6_221
*1340 FILLER_0_6_233
*1341 FILLER_0_6_245
*1342 FILLER_0_6_251
*1343 FILLER_0_6_253
*1344 FILLER_0_6_265
*1345 FILLER_0_6_27
*1346 FILLER_0_6_277
*1347 FILLER_0_6_289
*1348 FILLER_0_6_29
*1349 FILLER_0_6_3
*1350 FILLER_0_6_301
*1351 FILLER_0_6_307
*1352 FILLER_0_6_309
*1353 FILLER_0_6_321
*1354 FILLER_0_6_41
*1355 FILLER_0_6_53
*1356 FILLER_0_6_65
*1357 FILLER_0_6_77
*1358 FILLER_0_6_83
*1359 FILLER_0_6_85
*1360 FILLER_0_6_97
*1361 FILLER_0_7_105
*1362 FILLER_0_7_111
*1363 FILLER_0_7_113
*1364 FILLER_0_7_125
*1365 FILLER_0_7_137
*1366 FILLER_0_7_149
*1367 FILLER_0_7_15
*1368 FILLER_0_7_161
*1369 FILLER_0_7_167
*1370 FILLER_0_7_169
*1371 FILLER_0_7_181
*1372 FILLER_0_7_193
*1373 FILLER_0_7_205
*1374 FILLER_0_7_217
*1375 FILLER_0_7_223
*1376 FILLER_0_7_225
*1377 FILLER_0_7_237
*1378 FILLER_0_7_249
*1379 FILLER_0_7_261
*1380 FILLER_0_7_27
*1381 FILLER_0_7_273
*1382 FILLER_0_7_279
*1383 FILLER_0_7_281
*1384 FILLER_0_7_293
*1385 FILLER_0_7_3
*1386 FILLER_0_7_305
*1387 FILLER_0_7_317
*1388 FILLER_0_7_325
*1389 FILLER_0_7_39
*1390 FILLER_0_7_51
*1391 FILLER_0_7_55
*1392 FILLER_0_7_57
*1393 FILLER_0_7_69
*1394 FILLER_0_7_81
*1395 FILLER_0_7_93
*1396 FILLER_0_8_109
*1397 FILLER_0_8_121
*1398 FILLER_0_8_133
*1399 FILLER_0_8_139
*1400 FILLER_0_8_141
*1401 FILLER_0_8_15
*1402 FILLER_0_8_153
*1403 FILLER_0_8_165
*1404 FILLER_0_8_177
*1405 FILLER_0_8_189
*1406 FILLER_0_8_195
*1407 FILLER_0_8_197
*1408 FILLER_0_8_209
*1409 FILLER_0_8_221
*1410 FILLER_0_8_233
*1411 FILLER_0_8_245
*1412 FILLER_0_8_251
*1413 FILLER_0_8_253
*1414 FILLER_0_8_265
*1415 FILLER_0_8_27
*1416 FILLER_0_8_277
*1417 FILLER_0_8_289
*1418 FILLER_0_8_29
*1419 FILLER_0_8_3
*1420 FILLER_0_8_301
*1421 FILLER_0_8_307
*1422 FILLER_0_8_309
*1423 FILLER_0_8_321
*1424 FILLER_0_8_41
*1425 FILLER_0_8_53
*1426 FILLER_0_8_65
*1427 FILLER_0_8_77
*1428 FILLER_0_8_83
*1429 FILLER_0_8_85
*1430 FILLER_0_8_97
*1431 FILLER_0_9_105
*1432 FILLER_0_9_111
*1433 FILLER_0_9_113
*1434 FILLER_0_9_125
*1435 FILLER_0_9_137
*1436 FILLER_0_9_149
*1437 FILLER_0_9_15
*1438 FILLER_0_9_161
*1439 FILLER_0_9_167
*1440 FILLER_0_9_169
*1441 FILLER_0_9_181
*1442 FILLER_0_9_193
*1443 FILLER_0_9_205
*1444 FILLER_0_9_217
*1445 FILLER_0_9_223
*1446 FILLER_0_9_225
*1447 FILLER_0_9_237
*1448 FILLER_0_9_249
*1449 FILLER_0_9_261
*1450 FILLER_0_9_27
*1451 FILLER_0_9_273
*1452 FILLER_0_9_279
*1453 FILLER_0_9_281
*1454 FILLER_0_9_293
*1455 FILLER_0_9_3
*1456 FILLER_0_9_305
*1457 FILLER_0_9_317
*1458 FILLER_0_9_325
*1459 FILLER_0_9_39
*1460 FILLER_0_9_51
*1461 FILLER_0_9_55
*1462 FILLER_0_9_57
*1463 FILLER_0_9_69
*1464 FILLER_0_9_81
*1465 FILLER_0_9_93
*1466 PHY_EDGE_ROW_0_Left_39
*1467 PHY_EDGE_ROW_0_Right_0
*1468 PHY_EDGE_ROW_10_Left_49
*1469 PHY_EDGE_ROW_10_Right_10
*1470 PHY_EDGE_ROW_11_Left_50
*1471 PHY_EDGE_ROW_11_Right_11