*SPEF "ieee 1481-1999"
*DESIGN "tt_um_hh"
*DATE "11:11:11 Fri 11 11, 1111"
*VENDOR "OpenRCX"
*PROGRAM "Parallel Extraction"
*VERSION "1.0"
*DESIGN_FLOW "NAME_SCOPE LOCAL" "PIN_CAP NONE"
*DIVIDER /
*DELIMITER :
*BUS_DELIMITER []
*T_UNIT 1 NS
*C_UNIT 1 PF
*R_UNIT 1 OHM
*L_UNIT 1 HENRY

*NAME_MAP
*3 clk
*4 ena
*5 rst_n
*6 ui_in[0]
*7 ui_in[1]
*8 ui_in[2]
*9 ui_in[3]
*10 ui_in[4]
*11 ui_in[5]
*12 ui_in[6]
*13 ui_in[7]
*14 uio_in[0]
*15 uio_in[1]
*16 uio_in[2]
*17 uio_in[3]
*18 uio_in[4]
*19 uio_in[5]
*20 uio_in[6]
*21 uio_in[7]
*22 net10
*23 net11
*24 net12
*25 net13
*26 net14
*27 net15
*28 net16
*29 net17
*30 uio_out[0]
*31 uio_out[1]
*32 uio_out[2]
*33 uio_out[3]
*34 uio_out[4]
*35 uio_out[5]
*36 uio_out[6]
*37 uio_out[7]
*38 uo_out[0]
*39 uo_out[1]
*40 uo_out[2]
*41 uo_out[3]
*42 uo_out[4]
*43 uo_out[5]
*44 uo_out[6]
*45 uo_out[7]
*46 _0000_
*47 _0001_
*48 _0002_
*49 _0003_
*50 _0004_
*51 _0005_
*52 _0006_
*53 _0007_
*54 _0008_
*55 _0009_
*56 _0010_
*57 _0011_
*58 _0012_
*59 _0013_
*60 _0014_
*61 _0015_
*62 _0016_
*63 _0017_
*64 _0018_
*65 _0019_
*66 _0020_
*67 _0021_
*68 _0022_
*69 _0023_
*70 _0024_
*71 _0025_
*72 _0026_
*73 _0027_
*74 _0028_
*75 _0029_
*76 _0030_
*77 _0031_
*78 _0032_
*79 _0033_
*80 _0034_
*81 _0035_
*82 _0036_
*83 _0037_
*84 _0038_
*85 _0039_
*86 _0040_
*87 _0041_
*88 _0042_
*89 _0043_
*90 _0044_
*91 _0045_
*92 _0046_
*93 _0047_
*94 _0048_
*95 _0049_
*96 _0050_
*97 _0051_
*98 _0052_
*99 _0053_
*100 _0054_
*101 _0055_
*102 _0056_
*103 _0057_
*104 _0058_
*105 _0059_
*106 _0060_
*107 _0061_
*108 _0062_
*109 _0063_
*110 _0064_
*111 _0065_
*112 _0066_
*113 _0067_
*114 _0068_
*115 _0069_
*116 _0070_
*117 _0071_
*118 _0072_
*119 _0073_
*120 _0074_
*121 _0075_
*122 _0076_
*123 _0077_
*124 _0078_
*125 _0079_
*126 _0080_
*127 _0081_
*128 _0082_
*129 _0083_
*130 _0084_
*131 _0085_
*132 _0086_
*133 _0087_
*134 _0088_
*135 _0089_
*136 _0090_
*137 _0091_
*138 _0092_
*139 _0093_
*140 _0094_
*141 _0095_
*142 _0096_
*143 _0097_
*144 _0098_
*145 _0099_
*146 _0100_
*147 _0101_
*148 _0102_
*149 _0103_
*150 _0104_
*151 _0105_
*152 _0106_
*153 _0107_
*154 _0108_
*155 _0109_
*156 _0110_
*157 _0111_
*158 _0112_
*159 _0113_
*160 _0114_
*161 _0115_
*162 _0116_
*163 _0117_
*164 _0118_
*165 _0119_
*166 _0120_
*167 _0121_
*168 _0122_
*169 _0123_
*170 _0124_
*171 _0125_
*172 _0126_
*173 _0127_
*174 _0128_
*175 _0129_
*176 _0130_
*177 _0131_
*178 _0132_
*179 _0133_
*180 _0134_
*181 _0135_
*182 _0136_
*183 _0137_
*184 _0138_
*185 _0139_
*186 _0140_
*187 _0141_
*188 _0142_
*189 _0143_
*190 _0144_
*191 _0145_
*192 _0146_
*193 _0147_
*194 _0148_
*195 _0149_
*196 _0150_
*197 _0151_
*198 _0152_
*199 _0153_
*200 _0154_
*201 _0155_
*202 _0156_
*203 _0157_
*204 _0158_
*205 _0159_
*206 _0160_
*207 _0161_
*208 _0162_
*209 _0163_
*210 _0164_
*211 _0165_
*212 _0166_
*213 _0167_
*214 _0168_
*215 _0169_
*216 _0170_
*217 _0171_
*218 _0172_
*219 _0173_
*220 _0174_
*221 _0175_
*222 _0176_
*223 _0177_
*224 _0178_
*225 _0179_
*226 _0180_
*227 _0181_
*228 _0182_
*229 _0183_
*230 _0184_
*231 _0185_
*232 _0186_
*233 _0187_
*234 _0188_
*235 _0189_
*236 _0190_
*237 _0191_
*238 _0192_
*239 _0193_
*240 _0194_
*241 _0195_
*242 _0196_
*243 _0197_
*244 _0198_
*245 _0199_
*246 _0200_
*247 _0201_
*248 _0202_
*249 _0203_
*250 _0204_
*251 _0205_
*252 _0206_
*253 _0207_
*254 _0208_
*255 _0209_
*256 _0210_
*257 _0211_
*258 _0212_
*259 _0213_
*260 _0214_
*261 _0215_
*262 _0216_
*263 _0217_
*264 _0218_
*265 _0219_
*266 _0220_
*267 _0221_
*268 _0222_
*269 _0223_
*270 _0224_
*271 _0225_
*272 _0226_
*273 _0227_
*274 _0228_
*275 _0229_
*276 _0230_
*277 _0231_
*278 _0232_
*279 _0233_
*280 _0234_
*281 _0235_
*282 _0236_
*283 _0237_
*284 _0238_
*285 _0239_
*286 _0240_
*287 _0241_
*288 _0242_
*289 _0243_
*290 _0244_
*291 _0245_
*292 _0246_
*293 _0247_
*294 _0248_
*295 _0249_
*296 _0250_
*297 _0251_
*298 _0252_
*299 _0253_
*300 _0254_
*301 _0255_
*302 _0256_
*303 _0257_
*304 _0258_
*305 _0259_
*306 _0260_
*307 _0261_
*308 _0262_
*309 _0263_
*310 _0264_
*311 _0265_
*312 _0266_
*313 _0267_
*314 _0268_
*315 _0269_
*316 _0270_
*317 _0271_
*318 _0272_
*319 _0273_
*320 _0274_
*321 _0275_
*322 _0276_
*323 _0277_
*324 _0278_
*325 _0279_
*326 _0280_
*327 _0281_
*328 _0282_
*329 _0283_
*330 _0284_
*331 _0285_
*332 _0286_
*333 _0287_
*334 _0288_
*335 _0289_
*336 _0290_
*337 _0291_
*338 _0292_
*339 _0293_
*340 _0294_
*341 _0295_
*342 _0296_
*343 _0297_
*344 _0298_
*345 _0299_
*346 _0300_
*347 _0301_
*348 _0302_
*349 _0303_
*350 _0304_
*351 _0305_
*352 _0306_
*353 _0307_
*354 _0308_
*355 _0309_
*356 _0310_
*357 _0311_
*358 _0312_
*359 _0313_
*360 _0314_
*361 _0315_
*362 _0316_
*363 _0317_
*364 _0318_
*365 _0319_
*366 _0320_
*367 _0321_
*368 _0322_
*369 _0323_
*370 _0324_
*371 _0325_
*372 _0326_
*373 _0327_
*374 _0328_
*375 _0329_
*376 _0330_
*377 _0331_
*378 _0332_
*379 _0333_
*380 _0334_
*381 _0335_
*382 _0336_
*383 _0337_
*384 _0338_
*385 _0339_
*386 _0340_
*387 _0341_
*388 _0342_
*389 _0343_
*390 _0344_
*391 _0345_
*392 _0346_
*393 _0347_
*394 _0348_
*395 _0349_
*396 _0350_
*397 _0351_
*398 _0352_
*399 _0353_
*400 _0354_
*401 _0355_
*402 _0356_
*403 _0357_
*404 _0358_
*405 _0359_
*406 _0360_
*407 _0361_
*408 _0362_
*409 _0363_
*410 _0364_
*411 _0365_
*412 _0366_
*413 _0367_
*414 _0368_
*415 _0369_
*416 _0370_
*417 _0371_
*418 _0372_
*419 _0373_
*420 _0374_
*421 _0375_
*422 _0376_
*423 _0377_
*424 _0378_
*425 _0379_
*426 _0380_
*427 _0381_
*428 _0382_
*429 _0383_
*430 _0384_
*431 _0385_
*432 _0386_
*433 _0387_
*434 _0388_
*435 _0389_
*436 _0390_
*437 _0391_
*438 _0392_
*439 _0393_
*440 _0394_
*441 _0395_
*442 _0396_
*443 _0397_
*444 _0398_
*445 _0399_
*446 _0400_
*447 _0401_
*448 _0402_
*449 _0403_
*450 _0404_
*451 _0405_
*452 _0406_
*453 _0407_
*454 _0408_
*455 _0409_
*456 _0410_
*457 _0411_
*458 _0412_
*459 _0413_
*460 _0414_
*461 _0415_
*462 _0416_
*463 _0417_
*464 _0418_
*465 _0419_
*466 _0420_
*467 _0421_
*468 _0422_
*469 _0423_
*470 _0424_
*471 _0425_
*472 _0426_
*473 _0427_
*474 _0428_
*475 _0429_
*476 _0430_
*477 _0431_
*478 _0432_
*479 _0433_
*480 _0434_
*481 _0435_
*482 _0436_
*483 _0437_
*484 _0438_
*485 _0439_
*486 _0440_
*487 _0441_
*488 _0442_
*489 _0443_
*490 _0444_
*491 _0445_
*492 _0446_
*493 _0447_
*494 _0448_
*495 _0449_
*496 _0450_
*497 _0451_
*498 _0452_
*499 _0453_
*500 _0454_
*501 _0455_
*502 _0456_
*503 _0457_
*504 _0458_
*505 _0459_
*506 _0460_
*507 _0461_
*508 _0462_
*509 _0463_
*510 _0464_
*511 _0465_
*512 _0466_
*513 _0467_
*514 _0468_
*515 _0469_
*516 _0470_
*517 _0471_
*518 _0472_
*519 _0473_
*520 _0474_
*521 _0475_
*522 _0476_
*523 _0477_
*524 _0478_
*525 _0479_
*526 _0480_
*527 _0481_
*528 _0482_
*529 _0483_
*530 _0484_
*531 _0485_
*532 _0486_
*533 _0487_
*534 _0488_
*535 _0489_
*536 _0490_
*537 _0491_
*538 _0492_
*539 _0493_
*540 _0494_
*541 _0495_
*542 _0496_
*543 _0497_
*544 _0498_
*545 _0499_
*546 _0500_
*547 _0501_
*548 _0502_
*549 _0503_
*550 _0504_
*551 _0505_
*552 _0506_
*553 _0507_
*554 _0508_
*555 _0509_
*556 _0510_
*557 _0511_
*558 _0512_
*559 _0513_
*560 _0514_
*561 _0515_
*562 _0516_
*563 _0517_
*564 _0518_
*565 _0519_
*566 _0520_
*567 _0521_
*568 _0522_
*569 _0523_
*570 _0524_
*571 _0525_
*572 _0526_
*573 _0527_
*574 _0528_
*575 _0529_
*576 _0530_
*577 _0531_
*578 _0532_
*579 _0533_
*580 _0534_
*581 _0535_
*582 _0536_
*583 _0537_
*584 _0538_
*585 _0539_
*586 _0540_
*587 _0541_
*588 _0542_
*589 _0543_
*590 _0544_
*591 _0545_
*592 _0546_
*593 _0547_
*594 _0548_
*595 _0549_
*596 _0550_
*597 _0551_
*598 _0552_
*599 _0553_
*600 _0554_
*601 _0555_
*602 _0556_
*603 _0557_
*604 _0558_
*605 _0559_
*606 _0560_
*607 _0561_
*608 _0562_
*609 _0563_
*610 _0564_
*611 _0565_
*612 _0566_
*613 _0567_
*614 _0568_
*615 _0569_
*616 _0570_
*617 _0571_
*618 _0572_
*619 _0573_
*620 _0574_
*621 _0575_
*622 _0576_
*623 _0577_
*624 _0578_
*625 _0579_
*626 _0580_
*627 _0581_
*628 _0582_
*629 _0583_
*630 _0584_
*631 _0585_
*632 _0586_
*633 _0587_
*634 _0588_
*635 _0589_
*636 _0590_
*637 _0591_
*638 _0592_
*639 _0593_
*640 _0594_
*641 _0595_
*642 _0596_
*643 _0597_
*644 _0598_
*645 _0599_
*646 _0600_
*647 _0601_
*648 _0602_
*649 _0603_
*650 _0604_
*651 _0605_
*652 _0606_
*653 _0607_
*654 _0608_
*655 _0609_
*656 _0610_
*657 _0611_
*658 _0612_
*659 _0613_
*660 _0614_
*661 _0615_
*662 _0616_
*663 _0617_
*664 _0618_
*665 _0619_
*666 _0620_
*667 _0621_
*668 _0622_
*669 _0623_
*670 _0624_
*671 _0625_
*672 _0626_
*673 _0627_
*674 _0628_
*675 _0629_
*676 _0630_
*677 _0631_
*678 _0632_
*679 _0633_
*680 _0634_
*681 _0635_
*682 _0636_
*683 _0637_
*684 _0638_
*685 _0639_
*686 _0640_
*687 _0641_
*688 _0642_
*689 _0643_
*690 _0644_
*691 _0645_
*692 _0646_
*693 _0647_
*694 _0648_
*695 _0649_
*696 _0650_
*697 _0651_
*698 _0652_
*699 _0653_
*700 _0654_
*701 _0655_
*702 _0656_
*703 _0657_
*704 _0658_
*705 _0659_
*706 _0660_
*707 _0661_
*708 _0662_
*709 _0663_
*710 _0664_
*711 _0665_
*712 _0666_
*713 _0667_
*714 _0668_
*715 _0669_
*716 _0670_
*717 _0671_
*718 _0672_
*719 _0673_
*720 _0674_
*721 _0675_
*722 _0676_
*723 _0677_
*724 _0678_
*725 _0679_
*726 _0680_
*727 _0681_
*728 _0682_
*729 _0683_
*730 _0684_
*731 _0685_
*732 _0686_
*733 _0687_
*734 _0688_
*735 _0689_
*736 _0690_
*737 _0691_
*738 _0692_
*739 _0693_
*740 _0694_
*741 _0695_
*742 _0696_
*743 _0697_
*744 _0698_
*745 _0699_
*746 _0700_
*747 _0701_
*748 _0702_
*749 _0703_
*750 _0704_
*751 _0705_
*752 _0706_
*753 _0707_
*754 _0708_
*755 _0709_
*756 _0710_
*757 _0711_
*758 _0712_
*759 _0713_
*760 _0714_
*761 _0715_
*762 _0716_
*763 _0717_
*764 _0718_
*765 _0719_
*766 _0720_
*767 _0721_
*768 _0722_
*769 _0723_
*770 _0724_
*771 _0725_
*772 _0726_
*773 _0727_
*774 _0728_
*775 _0729_
*776 _0730_
*777 _0731_
*778 _0732_
*779 _0733_
*780 _0734_
*781 _0735_
*782 _0736_
*783 _0737_
*784 _0738_
*785 _0739_
*786 _0740_
*787 _0741_
*788 _0742_
*789 _0743_
*790 _0744_
*791 _0745_
*792 _0746_
*793 _0747_
*794 _0748_
*795 _0749_
*796 _0750_
*797 _0751_
*798 _0752_
*799 _0753_
*800 _0754_
*801 _0755_
*802 _0756_
*803 _0757_
*804 _0758_
*805 _0759_
*806 _0760_
*807 _0761_
*808 _0762_
*809 _0763_
*810 _0764_
*811 _0765_
*812 _0766_
*813 _0767_
*814 _0768_
*815 _0769_
*816 _0770_
*817 _0771_
*818 _0772_
*819 _0773_
*820 _0774_
*821 _0775_
*822 _0776_
*823 _0777_
*824 _0778_
*825 _0779_
*826 _0780_
*827 _0781_
*828 _0782_
*829 _0783_
*830 _0784_
*831 _0785_
*832 _0786_
*833 _0787_
*834 _0788_
*835 _0789_
*836 _0790_
*837 _0791_
*838 _0792_
*839 _0793_
*840 _0794_
*841 _0795_
*842 _0796_
*843 _0797_
*844 _0798_
*845 _0799_
*846 _0800_
*847 _0801_
*848 _0802_
*849 _0803_
*850 _0804_
*851 _0805_
*852 _0806_
*853 _0807_
*854 _0808_
*855 _0809_
*856 _0810_
*857 _0811_
*858 _0812_
*859 _0813_
*860 _0814_
*861 _0815_
*862 _0816_
*863 _0817_
*864 _0818_
*865 _0819_
*866 _0820_
*867 _0821_
*868 _0822_
*869 _0823_
*870 _0824_
*871 _0825_
*872 _0826_
*873 _0827_
*874 _0828_
*875 _0829_
*876 _0830_
*877 _0831_
*878 _0832_
*879 _0833_
*880 _0834_
*881 _0835_
*882 _0836_
*883 _0837_
*884 _0838_
*885 _0839_
*886 _0840_
*887 _0841_
*888 _0842_
*889 _0843_
*890 _0844_
*891 _0845_
*892 _0846_
*893 _0847_
*894 _0848_
*895 _0849_
*896 _0850_
*897 _0851_
*898 _0852_
*899 _0853_
*900 _0854_
*901 _0855_
*902 _0856_
*903 _0857_
*904 _0858_
*905 _0859_
*906 _0860_
*907 _0861_
*908 _0862_
*909 _0863_
*910 _0864_
*911 _0865_
*912 _0866_
*913 _0867_
*914 _0868_
*915 _0869_
*916 _0870_
*917 _0871_
*918 _0872_
*919 _0873_
*920 _0874_
*921 _0875_
*922 _0876_
*923 _0877_
*924 _0878_
*925 _0879_
*926 _0880_
*927 _0881_
*928 _0882_
*929 _0883_
*930 _0884_
*931 _0885_
*932 _0886_
*933 _0887_
*934 _0888_
*935 _0889_
*936 _0890_
*937 _0891_
*938 _0892_
*939 _0893_
*940 _0894_
*941 _0895_
*942 _0896_
*943 _0897_
*944 _0898_
*945 _0899_
*946 _0900_
*947 _0901_
*948 _0902_
*949 _0903_
*950 _0904_
*951 _0905_
*952 _0906_
*953 _0907_
*954 _0908_
*955 _0909_
*956 _0910_
*957 _0911_
*958 _0912_
*959 _0913_
*960 _0914_
*961 _0915_
*962 _0916_
*963 _0917_
*964 _0918_
*965 _0919_
*966 _0920_
*967 _0921_
*968 _0922_
*969 _0923_
*970 _0924_
*971 _0925_
*972 _0926_
*973 _0927_
*974 _0928_
*975 _0929_
*976 _0930_
*977 _0931_
*978 _0932_
*979 _0933_
*980 _0934_
*981 _0935_
*982 _0936_
*983 _0937_
*984 _0938_
*985 _0939_
*986 _0940_
*987 clknet_0_clk
*988 clknet_2_0__leaf_clk
*989 clknet_2_1__leaf_clk
*990 clknet_2_2__leaf_clk
*991 clknet_2_3__leaf_clk
*992 hh1\.V\[0\]
*993 hh1\.V\[10\]
*994 hh1\.V\[11\]
*995 hh1\.V\[12\]
*996 hh1\.V\[13\]
*997 hh1\.V\[14\]
*998 hh1\.V\[15\]
*999 hh1\.V\[1\]
*1000 hh1\.V\[2\]
*1001 hh1\.V\[3\]
*1002 hh1\.V\[4\]
*1003 hh1\.V\[5\]
*1004 hh1\.V\[6\]
*1005 hh1\.V\[7\]
*1006 hh1\.V\[8\]
*1007 hh1\.V\[9\]
*1008 hh1\.gKt\[9\]
*1009 hh1\.h\[0\]
*1010 hh1\.h\[1\]
*1011 hh1\.h\[2\]
*1012 hh1\.h\[3\]
*1013 hh1\.h\[4\]
*1014 hh1\.h\[5\]
*1015 hh1\.m\[1\]
*1016 hh1\.m\[2\]
*1017 hh1\.m\[3\]
*1018 hh1\.m\[4\]
*1019 hh1\.m\[5\]
*1020 hh1\.n\[1\]
*1021 hh1\.n\[2\]
*1022 hh1\.n\[3\]
*1023 hh1\.n\[4\]
*1024 hh1\.n\[5\]
*1025 hh1\.n\[6\]
*1026 net1
*1027 net18
*1028 net19
*1029 net2
*1030 net3
*1031 net4
*1032 net5
*1033 net6
*1034 net7
*1035 net8
*1036 net9
*1037 FILLER_0_0_1005
*1038 FILLER_0_0_1009
*1039 FILLER_0_0_1021
*1040 FILLER_0_0_1033
*1041 FILLER_0_0_1037
*1042 FILLER_0_0_1049
*1043 FILLER_0_0_1061
*1044 FILLER_0_0_1065
*1045 FILLER_0_0_1077
*1046 FILLER_0_0_1089
*1047 FILLER_0_0_109
*1048 FILLER_0_0_1093
*1049 FILLER_0_0_1105
*1050 FILLER_0_0_1117
*1051 FILLER_0_0_1121
*1052 FILLER_0_0_113
*1053 FILLER_0_0_1133
*1054 FILLER_0_0_1145
*1055 FILLER_0_0_1149
*1056 FILLER_0_0_1161
*1057 FILLER_0_0_1173
*1058 FILLER_0_0_1177
*1059 FILLER_0_0_1189
*1060 FILLER_0_0_1201
*1061 FILLER_0_0_1205
*1062 FILLER_0_0_1217
*1063 FILLER_0_0_1229
*1064 FILLER_0_0_1233
*1065 FILLER_0_0_1245
*1066 FILLER_0_0_125
*1067 FILLER_0_0_1257
*1068 FILLER_0_0_1261
*1069 FILLER_0_0_1273
*1070 FILLER_0_0_1285
*1071 FILLER_0_0_1289
*1072 FILLER_0_0_1301
*1073 FILLER_0_0_1313
*1074 FILLER_0_0_1317
*1075 FILLER_0_0_1329
*1076 FILLER_0_0_1341
*1077 FILLER_0_0_1345
*1078 FILLER_0_0_1357
*1079 FILLER_0_0_1369
*1080 FILLER_0_0_137
*1081 FILLER_0_0_1373
*1082 FILLER_0_0_1385
*1083 FILLER_0_0_1397
*1084 FILLER_0_0_1401
*1085 FILLER_0_0_141
*1086 FILLER_0_0_1413
*1087 FILLER_0_0_1425
*1088 FILLER_0_0_1429
*1089 FILLER_0_0_1441
*1090 FILLER_0_0_1453
*1091 FILLER_0_0_1457
*1092 FILLER_0_0_15
*1093 FILLER_0_0_153
*1094 FILLER_0_0_165
*1095 FILLER_0_0_169
*1096 FILLER_0_0_181
*1097 FILLER_0_0_193
*1098 FILLER_0_0_197
*1099 FILLER_0_0_209
*1100 FILLER_0_0_221
*1101 FILLER_0_0_225
*1102 FILLER_0_0_237
*1103 FILLER_0_0_249
*1104 FILLER_0_0_253
*1105 FILLER_0_0_265
*1106 FILLER_0_0_27
*1107 FILLER_0_0_277
*1108 FILLER_0_0_281
*1109 FILLER_0_0_29
*1110 FILLER_0_0_293
*1111 FILLER_0_0_3
*1112 FILLER_0_0_305
*1113 FILLER_0_0_309
*1114 FILLER_0_0_321
*1115 FILLER_0_0_333
*1116 FILLER_0_0_337
*1117 FILLER_0_0_349
*1118 FILLER_0_0_361
*1119 FILLER_0_0_365
*1120 FILLER_0_0_377
*1121 FILLER_0_0_389
*1122 FILLER_0_0_393
*1123 FILLER_0_0_405
*1124 FILLER_0_0_41
*1125 FILLER_0_0_417
*1126 FILLER_0_0_421
*1127 FILLER_0_0_433
*1128 FILLER_0_0_445
*1129 FILLER_0_0_449
*1130 FILLER_0_0_461
*1131 FILLER_0_0_473
*1132 FILLER_0_0_477
*1133 FILLER_0_0_489
*1134 FILLER_0_0_501
*1135 FILLER_0_0_505
*1136 FILLER_0_0_517
*1137 FILLER_0_0_529
*1138 FILLER_0_0_53
*1139 FILLER_0_0_533
*1140 FILLER_0_0_545
*1141 FILLER_0_0_557
*1142 FILLER_0_0_561
*1143 FILLER_0_0_57
*1144 FILLER_0_0_573
*1145 FILLER_0_0_585
*1146 FILLER_0_0_589
*1147 FILLER_0_0_601
*1148 FILLER_0_0_613
*1149 FILLER_0_0_617
*1150 FILLER_0_0_629
*1151 FILLER_0_0_641
*1152 FILLER_0_0_645
*1153 FILLER_0_0_657
*1154 FILLER_0_0_669
*1155 FILLER_0_0_673
*1156 FILLER_0_0_685
*1157 FILLER_0_0_69
*1158 FILLER_0_0_697
*1159 FILLER_0_0_701
*1160 FILLER_0_0_713
*1161 FILLER_0_0_725
*1162 FILLER_0_0_729
*1163 FILLER_0_0_741
*1164 FILLER_0_0_753
*1165 FILLER_0_0_757
*1166 FILLER_0_0_769
*1167 FILLER_0_0_781
*1168 FILLER_0_0_785
*1169 FILLER_0_0_797
*1170 FILLER_0_0_809
*1171 FILLER_0_0_81
*1172 FILLER_0_0_813
*1173 FILLER_0_0_825
*1174 FILLER_0_0_837
*1175 FILLER_0_0_841
*1176 FILLER_0_0_85
*1177 FILLER_0_0_853
*1178 FILLER_0_0_865
*1179 FILLER_0_0_869
*1180 FILLER_0_0_881
*1181 FILLER_0_0_893
*1182 FILLER_0_0_897
*1183 FILLER_0_0_909
*1184 FILLER_0_0_921
*1185 FILLER_0_0_925
*1186 FILLER_0_0_937
*1187 FILLER_0_0_949
*1188 FILLER_0_0_953
*1189 FILLER_0_0_965
*1190 FILLER_0_0_97
*1191 FILLER_0_0_977
*1192 FILLER_0_0_981
*1193 FILLER_0_0_993
*1194 FILLER_0_10_1005
*1195 FILLER_0_10_1017
*1196 FILLER_0_10_1029
*1197 FILLER_0_10_1035
*1198 FILLER_0_10_1037
*1199 FILLER_0_10_1049
*1200 FILLER_0_10_1061
*1201 FILLER_0_10_1073
*1202 FILLER_0_10_1085
*1203 FILLER_0_10_109
*1204 FILLER_0_10_1091
*1205 FILLER_0_10_1093
*1206 FILLER_0_10_1105
*1207 FILLER_0_10_1117
*1208 FILLER_0_10_1129
*1209 FILLER_0_10_1141
*1210 FILLER_0_10_1147
*1211 FILLER_0_10_1149
*1212 FILLER_0_10_1161
*1213 FILLER_0_10_1173
*1214 FILLER_0_10_1185
*1215 FILLER_0_10_1197
*1216 FILLER_0_10_1203
*1217 FILLER_0_10_1205
*1218 FILLER_0_10_121
*1219 FILLER_0_10_1217
*1220 FILLER_0_10_1229
*1221 FILLER_0_10_1241
*1222 FILLER_0_10_1253
*1223 FILLER_0_10_1259
*1224 FILLER_0_10_1261
*1225 FILLER_0_10_1273
*1226 FILLER_0_10_1285
*1227 FILLER_0_10_1297
*1228 FILLER_0_10_1309
*1229 FILLER_0_10_1315
*1230 FILLER_0_10_1317
*1231 FILLER_0_10_1329
*1232 FILLER_0_10_133
*1233 FILLER_0_10_1341
*1234 FILLER_0_10_1353
*1235 FILLER_0_10_1365
*1236 FILLER_0_10_1371
*1237 FILLER_0_10_1373
*1238 FILLER_0_10_1385
*1239 FILLER_0_10_139
*1240 FILLER_0_10_1397
*1241 FILLER_0_10_1409
*1242 FILLER_0_10_141
*1243 FILLER_0_10_1421
*1244 FILLER_0_10_1427
*1245 FILLER_0_10_1429
*1246 FILLER_0_10_1441
*1247 FILLER_0_10_1453
*1248 FILLER_0_10_15
*1249 FILLER_0_10_153
*1250 FILLER_0_10_165
*1251 FILLER_0_10_177
*1252 FILLER_0_10_189
*1253 FILLER_0_10_195
*1254 FILLER_0_10_197
*1255 FILLER_0_10_209
*1256 FILLER_0_10_221
*1257 FILLER_0_10_233
*1258 FILLER_0_10_245
*1259 FILLER_0_10_251
*1260 FILLER_0_10_253
*1261 FILLER_0_10_265
*1262 FILLER_0_10_27
*1263 FILLER_0_10_277
*1264 FILLER_0_10_289
*1265 FILLER_0_10_29
*1266 FILLER_0_10_3
*1267 FILLER_0_10_301
*1268 FILLER_0_10_307
*1269 FILLER_0_10_309
*1270 FILLER_0_10_321
*1271 FILLER_0_10_333
*1272 FILLER_0_10_345
*1273 FILLER_0_10_357
*1274 FILLER_0_10_363
*1275 FILLER_0_10_365
*1276 FILLER_0_10_377
*1277 FILLER_0_10_389
*1278 FILLER_0_10_401
*1279 FILLER_0_10_41
*1280 FILLER_0_10_413
*1281 FILLER_0_10_419
*1282 FILLER_0_10_421
*1283 FILLER_0_10_433
*1284 FILLER_0_10_445
*1285 FILLER_0_10_457
*1286 FILLER_0_10_469
*1287 FILLER_0_10_475
*1288 FILLER_0_10_477
*1289 FILLER_0_10_489
*1290 FILLER_0_10_501
*1291 FILLER_0_10_513
*1292 FILLER_0_10_525
*1293 FILLER_0_10_53
*1294 FILLER_0_10_531
*1295 FILLER_0_10_533
*1296 FILLER_0_10_545
*1297 FILLER_0_10_557
*1298 FILLER_0_10_569
*1299 FILLER_0_10_581
*1300 FILLER_0_10_587
*1301 FILLER_0_10_589
*1302 FILLER_0_10_601
*1303 FILLER_0_10_613
*1304 FILLER_0_10_625
*1305 FILLER_0_10_637
*1306 FILLER_0_10_643
*1307 FILLER_0_10_645
*1308 FILLER_0_10_65
*1309 FILLER_0_10_657
*1310 FILLER_0_10_669
*1311 FILLER_0_10_681
*1312 FILLER_0_10_693
*1313 FILLER_0_10_699
*1314 FILLER_0_10_701
*1315 FILLER_0_10_713
*1316 FILLER_0_10_725
*1317 FILLER_0_10_737
*1318 FILLER_0_10_749
*1319 FILLER_0_10_755
*1320 FILLER_0_10_757
*1321 FILLER_0_10_769
*1322 FILLER_0_10_77
*1323 FILLER_0_10_781
*1324 FILLER_0_10_793
*1325 FILLER_0_10_805
*1326 FILLER_0_10_811
*1327 FILLER_0_10_813
*1328 FILLER_0_10_825
*1329 FILLER_0_10_83
*1330 FILLER_0_10_837
*1331 FILLER_0_10_849
*1332 FILLER_0_10_85
*1333 FILLER_0_10_861
*1334 FILLER_0_10_867
*1335 FILLER_0_10_869
*1336 FILLER_0_10_881
*1337 FILLER_0_10_893
*1338 FILLER_0_10_905
*1339 FILLER_0_10_917
*1340 FILLER_0_10_923
*1341 FILLER_0_10_925
*1342 FILLER_0_10_937
*1343 FILLER_0_10_949
*1344 FILLER_0_10_961
*1345 FILLER_0_10_97
*1346 FILLER_0_10_973
*1347 FILLER_0_10_979
*1348 FILLER_0_10_981
*1349 FILLER_0_10_993
*1350 FILLER_0_11_1001
*1351 FILLER_0_11_1007
*1352 FILLER_0_11_1009
*1353 FILLER_0_11_1021
*1354 FILLER_0_11_1033
*1355 FILLER_0_11_1045
*1356 FILLER_0_11_105
*1357 FILLER_0_11_1057
*1358 FILLER_0_11_1063
*1359 FILLER_0_11_1065
*1360 FILLER_0_11_1077
*1361 FILLER_0_11_1089
*1362 FILLER_0_11_1101
*1363 FILLER_0_11_111
*1364 FILLER_0_11_1113
*1365 FILLER_0_11_1119
*1366 FILLER_0_11_1121
*1367 FILLER_0_11_113
*1368 FILLER_0_11_1133
*1369 FILLER_0_11_1145
*1370 FILLER_0_11_1157
*1371 FILLER_0_11_1169
*1372 FILLER_0_11_1175
*1373 FILLER_0_11_1177
*1374 FILLER_0_11_1189
*1375 FILLER_0_11_1201
*1376 FILLER_0_11_1213
*1377 FILLER_0_11_1225
*1378 FILLER_0_11_1231
*1379 FILLER_0_11_1233
*1380 FILLER_0_11_1245
*1381 FILLER_0_11_125
*1382 FILLER_0_11_1257
*1383 FILLER_0_11_1269
*1384 FILLER_0_11_1281
*1385 FILLER_0_11_1287
*1386 FILLER_0_11_1289
*1387 FILLER_0_11_1301
*1388 FILLER_0_11_1313
*1389 FILLER_0_11_1325
*1390 FILLER_0_11_1337
*1391 FILLER_0_11_1343
*1392 FILLER_0_11_1345
*1393 FILLER_0_11_1357
*1394 FILLER_0_11_1369
*1395 FILLER_0_11_137
*1396 FILLER_0_11_1381
*1397 FILLER_0_11_1393
*1398 FILLER_0_11_1399
*1399 FILLER_0_11_1401
*1400 FILLER_0_11_1413
*1401 FILLER_0_11_1425
*1402 FILLER_0_11_1437
*1403 FILLER_0_11_1449
*1404 FILLER_0_11_1455
*1405 FILLER_0_11_1457
*1406 FILLER_0_11_149
*1407 FILLER_0_11_15
*1408 FILLER_0_11_161
*1409 FILLER_0_11_167
*1410 FILLER_0_11_169
*1411 FILLER_0_11_181
*1412 FILLER_0_11_193
*1413 FILLER_0_11_205
*1414 FILLER_0_11_217
*1415 FILLER_0_11_223
*1416 FILLER_0_11_225
*1417 FILLER_0_11_237
*1418 FILLER_0_11_249
*1419 FILLER_0_11_261
*1420 FILLER_0_11_27
*1421 FILLER_0_11_273
*1422 FILLER_0_11_279
*1423 FILLER_0_11_281
*1424 FILLER_0_11_293
*1425 FILLER_0_11_3
*1426 FILLER_0_11_305
*1427 FILLER_0_11_317
*1428 FILLER_0_11_329
*1429 FILLER_0_11_335
*1430 FILLER_0_11_337
*1431 FILLER_0_11_349
*1432 FILLER_0_11_361
*1433 FILLER_0_11_373
*1434 FILLER_0_11_385
*1435 FILLER_0_11_39
*1436 FILLER_0_11_391
*1437 FILLER_0_11_393
*1438 FILLER_0_11_405
*1439 FILLER_0_11_417
*1440 FILLER_0_11_429
*1441 FILLER_0_11_441
*1442 FILLER_0_11_447
*1443 FILLER_0_11_449
*1444 FILLER_0_11_461
*1445 FILLER_0_11_473
*1446 FILLER_0_11_485
*1447 FILLER_0_11_497
*1448 FILLER_0_11_503
*1449 FILLER_0_11_505
*1450 FILLER_0_11_51
*1451 FILLER_0_11_517
*1452 FILLER_0_11_529
*1453 FILLER_0_11_541
*1454 FILLER_0_11_55
*1455 FILLER_0_11_553
*1456 FILLER_0_11_559
*1457 FILLER_0_11_561
*1458 FILLER_0_11_57
*1459 FILLER_0_11_573
*1460 FILLER_0_11_585
*1461 FILLER_0_11_597
*1462 FILLER_0_11_609
*1463 FILLER_0_11_615
*1464 FILLER_0_11_617
*1465 FILLER_0_11_629
*1466 FILLER_0_11_641
*1467 FILLER_0_11_653
*1468 FILLER_0_11_665
*1469 FILLER_0_11_671
*1470 FILLER_0_11_673
*1471 FILLER_0_11_685
*1472 FILLER_0_11_69
*1473 FILLER_0_11_697
*1474 FILLER_0_11_709
*1475 FILLER_0_11_721
*1476 FILLER_0_11_727
*1477 FILLER_0_11_729
*1478 FILLER_0_11_741
*1479 FILLER_0_11_753
*1480 FILLER_0_11_765
*1481 FILLER_0_11_777
*1482 FILLER_0_11_783
*1483 FILLER_0_11_785
*1484 FILLER_0_11_797
*1485 FILLER_0_11_809
*1486 FILLER_0_11_81
*1487 FILLER_0_11_821
*1488 FILLER_0_11_833
*1489 FILLER_0_11_839
*1490 FILLER_0_11_841
*1491 FILLER_0_11_853
*1492 FILLER_0_11_865
*1493 FILLER_0_11_877
*1494 FILLER_0_11_889
*1495 FILLER_0_11_895
*1496 FILLER_0_11_897
*1497 FILLER_0_11_909
*1498 FILLER_0_11_921
*1499 FILLER_0_11_93
*1500 FILLER_0_11_933
*1501 FILLER_0_11_945
*1502 FILLER_0_11_951
*1503 FILLER_0_11_953
*1504 FILLER_0_11_965
*1505 FILLER_0_11_977
*1506 FILLER_0_11_989
*1507 FILLER_0_12_1005
*1508 FILLER_0_12_1017
*1509 FILLER_0_12_1029
*1510 FILLER_0_12_1035
*1511 FILLER_0_12_1037
*1512 FILLER_0_12_1049
*1513 FILLER_0_12_1061
*1514 FILLER_0_12_1073
*1515 FILLER_0_12_1085
*1516 FILLER_0_12_109
*1517 FILLER_0_12_1091
*1518 FILLER_0_12_1093
*1519 FILLER_0_12_1105
*1520 FILLER_0_12_1117
*1521 FILLER_0_12_1129
*1522 FILLER_0_12_1141
*1523 FILLER_0_12_1147
*1524 FILLER_0_12_1149
*1525 FILLER_0_12_1161
*1526 FILLER_0_12_1173
*1527 FILLER_0_12_1185
*1528 FILLER_0_12_1197
*1529 FILLER_0_12_1203
*1530 FILLER_0_12_1205
*1531 FILLER_0_12_121
*1532 FILLER_0_12_1217
*1533 FILLER_0_12_1229
*1534 FILLER_0_12_1241
*1535 FILLER_0_12_1253
*1536 FILLER_0_12_1259
*1537 FILLER_0_12_1261
*1538 FILLER_0_12_1273
*1539 FILLER_0_12_1285
*1540 FILLER_0_12_1297
*1541 FILLER_0_12_1309
*1542 FILLER_0_12_1315
*1543 FILLER_0_12_1317
*1544 FILLER_0_12_1329
*1545 FILLER_0_12_133
*1546 FILLER_0_12_1341
*1547 FILLER_0_12_1353
*1548 FILLER_0_12_1365
*1549 FILLER_0_12_1371
*1550 FILLER_0_12_1373
*1551 FILLER_0_12_1385
*1552 FILLER_0_12_139
*1553 FILLER_0_12_1397
*1554 FILLER_0_12_1409
*1555 FILLER_0_12_141
*1556 FILLER_0_12_1421
*1557 FILLER_0_12_1427
*1558 FILLER_0_12_1429
*1559 FILLER_0_12_1441
*1560 FILLER_0_12_1453
*1561 FILLER_0_12_15
*1562 FILLER_0_12_153
*1563 FILLER_0_12_165
*1564 FILLER_0_12_177
*1565 FILLER_0_12_189
*1566 FILLER_0_12_195
*1567 FILLER_0_12_197
*1568 FILLER_0_12_209
*1569 FILLER_0_12_221
*1570 FILLER_0_12_233
*1571 FILLER_0_12_245
*1572 FILLER_0_12_251
*1573 FILLER_0_12_253
*1574 FILLER_0_12_265
*1575 FILLER_0_12_27
*1576 FILLER_0_12_277
*1577 FILLER_0_12_289
*1578 FILLER_0_12_29
*1579 FILLER_0_12_3
*1580 FILLER_0_12_301
*1581 FILLER_0_12_307
*1582 FILLER_0_12_309
*1583 FILLER_0_12_321
*1584 FILLER_0_12_333
*1585 FILLER_0_12_345
*1586 FILLER_0_12_357
*1587 FILLER_0_12_363
*1588 FILLER_0_12_365
*1589 FILLER_0_12_377
*1590 FILLER_0_12_389
*1591 FILLER_0_12_401
*1592 FILLER_0_12_41
*1593 FILLER_0_12_413
*1594 FILLER_0_12_419
*1595 FILLER_0_12_421
*1596 FILLER_0_12_433
*1597 FILLER_0_12_445
*1598 FILLER_0_12_457
*1599 FILLER_0_12_469
*1600 FILLER_0_12_475
*1601 FILLER_0_12_477
*1602 FILLER_0_12_489
*1603 FILLER_0_12_501
*1604 FILLER_0_12_513
*1605 FILLER_0_12_525
*1606 FILLER_0_12_53
*1607 FILLER_0_12_531
*1608 FILLER_0_12_533
*1609 FILLER_0_12_545
*1610 FILLER_0_12_557
*1611 FILLER_0_12_569
*1612 FILLER_0_12_581
*1613 FILLER_0_12_587
*1614 FILLER_0_12_589
*1615 FILLER_0_12_601
*1616 FILLER_0_12_613
*1617 FILLER_0_12_625
*1618 FILLER_0_12_637
*1619 FILLER_0_12_643
*1620 FILLER_0_12_645
*1621 FILLER_0_12_65
*1622 FILLER_0_12_657
*1623 FILLER_0_12_669
*1624 FILLER_0_12_681
*1625 FILLER_0_12_693
*1626 FILLER_0_12_699
*1627 FILLER_0_12_701
*1628 FILLER_0_12_713
*1629 FILLER_0_12_725
*1630 FILLER_0_12_737
*1631 FILLER_0_12_749
*1632 FILLER_0_12_755
*1633 FILLER_0_12_757
*1634 FILLER_0_12_769
*1635 FILLER_0_12_77
*1636 FILLER_0_12_781
*1637 FILLER_0_12_793
*1638 FILLER_0_12_805
*1639 FILLER_0_12_811
*1640 FILLER_0_12_813
*1641 FILLER_0_12_825
*1642 FILLER_0_12_83
*1643 FILLER_0_12_837
*1644 FILLER_0_12_849
*1645 FILLER_0_12_85
*1646 FILLER_0_12_861
*1647 FILLER_0_12_867
*1648 FILLER_0_12_869
*1649 FILLER_0_12_881
*1650 FILLER_0_12_893
*1651 FILLER_0_12_905
*1652 FILLER_0_12_917
*1653 FILLER_0_12_923
*1654 FILLER_0_12_925
*1655 FILLER_0_12_937
*1656 FILLER_0_12_949
*1657 FILLER_0_12_961
*1658 FILLER_0_12_97
*1659 FILLER_0_12_973
*1660 FILLER_0_12_979
*1661 FILLER_0_12_981
*1662 FILLER_0_12_993
*1663 FILLER_0_13_1001
*1664 FILLER_0_13_1007
*1665 FILLER_0_13_1009
*1666 FILLER_0_13_1021
*1667 FILLER_0_13_1033
*1668 FILLER_0_13_1045
*1669 FILLER_0_13_105
*1670 FILLER_0_13_1057
*1671 FILLER_0_13_1063
*1672 FILLER_0_13_1065
*1673 FILLER_0_13_1077
*1674 FILLER_0_13_1089
*1675 FILLER_0_13_1101
*1676 FILLER_0_13_111
*1677 FILLER_0_13_1113
*1678 FILLER_0_13_1119
*1679 FILLER_0_13_1121
*1680 FILLER_0_13_113
*1681 FILLER_0_13_1133
*1682 FILLER_0_13_1145
*1683 FILLER_0_13_1157
*1684 FILLER_0_13_1169
*1685 FILLER_0_13_1175
*1686 FILLER_0_13_1177
*1687 FILLER_0_13_1189
*1688 FILLER_0_13_1201
*1689 FILLER_0_13_1213
*1690 FILLER_0_13_1225
*1691 FILLER_0_13_1231
*1692 FILLER_0_13_1233
*1693 FILLER_0_13_1245
*1694 FILLER_0_13_125
*1695 FILLER_0_13_1257
*1696 FILLER_0_13_1269
*1697 FILLER_0_13_1281
*1698 FILLER_0_13_1287
*1699 FILLER_0_13_1289
*1700 FILLER_0_13_1301
*1701 FILLER_0_13_1313
*1702 FILLER_0_13_1325
*1703 FILLER_0_13_1337
*1704 FILLER_0_13_1343
*1705 FILLER_0_13_1345
*1706 FILLER_0_13_1357
*1707 FILLER_0_13_1369
*1708 FILLER_0_13_137
*1709 FILLER_0_13_1381
*1710 FILLER_0_13_1393
*1711 FILLER_0_13_1399
*1712 FILLER_0_13_1401
*1713 FILLER_0_13_1413
*1714 FILLER_0_13_1425
*1715 FILLER_0_13_1437
*1716 FILLER_0_13_1449
*1717 FILLER_0_13_1455
*1718 FILLER_0_13_1457
*1719 FILLER_0_13_149
*1720 FILLER_0_13_15
*1721 FILLER_0_13_161
*1722 FILLER_0_13_167
*1723 FILLER_0_13_169
*1724 FILLER_0_13_181
*1725 FILLER_0_13_193
*1726 FILLER_0_13_205
*1727 FILLER_0_13_217
*1728 FILLER_0_13_223
*1729 FILLER_0_13_225
*1730 FILLER_0_13_237
*1731 FILLER_0_13_249
*1732 FILLER_0_13_261
*1733 FILLER_0_13_27
*1734 FILLER_0_13_273
*1735 FILLER_0_13_279
*1736 FILLER_0_13_281
*1737 FILLER_0_13_293
*1738 FILLER_0_13_3
*1739 FILLER_0_13_305
*1740 FILLER_0_13_317
*1741 FILLER_0_13_329
*1742 FILLER_0_13_335
*1743 FILLER_0_13_337
*1744 FILLER_0_13_349
*1745 FILLER_0_13_361
*1746 FILLER_0_13_373
*1747 FILLER_0_13_385
*1748 FILLER_0_13_39
*1749 FILLER_0_13_391
*1750 FILLER_0_13_393
*1751 FILLER_0_13_405
*1752 FILLER_0_13_417
*1753 FILLER_0_13_429
*1754 FILLER_0_13_441
*1755 FILLER_0_13_447
*1756 FILLER_0_13_449
*1757 FILLER_0_13_461
*1758 FILLER_0_13_473
*1759 FILLER_0_13_485
*1760 FILLER_0_13_497
*1761 FILLER_0_13_503
*1762 FILLER_0_13_505
*1763 FILLER_0_13_51
*1764 FILLER_0_13_517
*1765 FILLER_0_13_529
*1766 FILLER_0_13_541
*1767 FILLER_0_13_55
*1768 FILLER_0_13_553
*1769 FILLER_0_13_559
*1770 FILLER_0_13_561
*1771 FILLER_0_13_57
*1772 FILLER_0_13_573
*1773 FILLER_0_13_585
*1774 FILLER_0_13_597
*1775 FILLER_0_13_609
*1776 FILLER_0_13_615
*1777 FILLER_0_13_617
*1778 FILLER_0_13_629
*1779 FILLER_0_13_641
*1780 FILLER_0_13_653
*1781 FILLER_0_13_665
*1782 FILLER_0_13_671
*1783 FILLER_0_13_673
*1784 FILLER_0_13_685
*1785 FILLER_0_13_69
*1786 FILLER_0_13_697
*1787 FILLER_0_13_709
*1788 FILLER_0_13_721
*1789 FILLER_0_13_727
*1790 FILLER_0_13_729
*1791 FILLER_0_13_741
*1792 FILLER_0_13_753
*1793 FILLER_0_13_765
*1794 FILLER_0_13_777
*1795 FILLER_0_13_783
*1796 FILLER_0_13_785
*1797 FILLER_0_13_797
*1798 FILLER_0_13_809
*1799 FILLER_0_13_81
*1800 FILLER_0_13_821
*1801 FILLER_0_13_833
*1802 FILLER_0_13_839
*1803 FILLER_0_13_841
*1804 FILLER_0_13_853
*1805 FILLER_0_13_865
*1806 FILLER_0_13_877
*1807 FILLER_0_13_889
*1808 FILLER_0_13_895
*1809 FILLER_0_13_897