*SPEF "ieee 1481-1999"
*DESIGN "tt_um_uabc_electronica_2023"
*DATE "11:11:11 Fri 11 11, 1111"
*VENDOR "OpenRCX"
*PROGRAM "Parallel Extraction"
*VERSION "1.0"
*DESIGN_FLOW "NAME_SCOPE LOCAL" "PIN_CAP NONE"
*DIVIDER /
*DELIMITER :
*BUS_DELIMITER []
*T_UNIT 1 NS
*C_UNIT 1 PF
*R_UNIT 1 OHM
*L_UNIT 1 HENRY

*NAME_MAP
*3 clk
*4 ena
*5 rst_n
*6 ui_in[0]
*7 ui_in[1]
*8 ui_in[2]
*9 ui_in[3]
*10 ui_in[4]
*11 ui_in[5]
*12 ui_in[6]
*13 ui_in[7]
*14 uio_in[0]
*15 uio_in[1]
*16 uio_in[2]
*17 uio_in[3]
*18 uio_in[4]
*19 uio_in[5]
*20 uio_in[6]
*21 uio_in[7]
*22 net14
*23 net15
*24 net16
*25 net17
*26 net18
*27 net19
*28 net20
*29 net21
*30 uio_out[0]
*31 uio_out[1]
*32 uio_out[2]
*33 uio_out[3]
*34 uio_out[4]
*35 uio_out[5]
*36 uio_out[6]
*37 uio_out[7]
*38 uo_out[0]
*39 uo_out[1]
*40 uo_out[2]
*41 uo_out[3]
*42 uo_out[4]
*43 uo_out[5]
*44 uo_out[6]
*45 net13
*46 _000_
*47 _001_
*48 _002_
*49 _003_
*50 _004_
*51 _005_
*52 _006_
*53 _007_
*54 _008_
*55 _009_
*56 _010_
*57 _011_
*58 _012_
*59 _013_
*60 _014_
*61 _015_
*62 _016_
*63 _017_
*64 _018_
*65 _019_
*66 _020_
*67 _021_
*68 _022_
*69 _023_
*70 _024_
*71 _025_
*72 _026_
*73 _027_
*74 _028_
*75 _029_
*76 _030_
*77 _031_
*78 _032_
*79 _033_
*80 _034_
*81 _035_
*82 _036_
*83 _037_
*84 _038_
*85 _039_
*86 _040_
*87 _041_
*88 _042_
*89 _043_
*90 _044_
*91 _045_
*92 _046_
*93 _047_
*94 _048_
*95 _049_
*96 _050_
*97 _051_
*98 _052_
*99 _053_
*100 _054_
*101 _055_
*102 _056_
*103 _057_
*104 _058_
*105 _059_
*106 _060_
*107 _061_
*108 _062_
*109 _063_
*110 _064_
*111 _065_
*112 _066_
*113 _067_
*114 _068_
*115 _069_
*116 _070_
*117 _071_
*118 _072_
*119 _073_
*120 _074_
*121 _075_
*122 _076_
*123 _077_
*124 _078_
*125 _079_
*126 _080_
*127 _081_
*128 _082_
*129 _083_
*130 _084_
*131 _085_
*132 _086_
*133 _087_
*134 _088_
*135 _089_
*136 _090_
*137 _091_
*138 _092_
*139 _093_
*140 _094_
*141 _095_
*142 _096_
*143 _097_
*144 _098_
*145 _099_
*146 _100_
*147 _101_
*148 _102_
*149 _103_
*150 _104_
*151 _105_
*152 _106_
*153 _107_
*154 _108_
*155 _109_
*156 _110_
*157 _111_
*158 _112_
*159 _113_
*160 _114_
*161 _115_
*162 _116_
*163 _117_
*164 _118_
*165 _119_
*166 _120_
*167 _121_
*168 _122_
*169 _123_
*170 _124_
*171 _125_
*172 _126_
*173 _127_
*174 _128_
*175 _129_
*176 _130_
*177 _131_
*178 _132_
*179 _133_
*180 _134_
*181 _135_
*182 _136_
*183 _137_
*184 _138_
*185 _139_
*186 _140_
*187 _141_
*188 _142_
*189 _143_
*190 _144_
*191 _145_
*192 _146_
*193 _147_
*194 _148_
*195 _149_
*196 _150_
*197 _151_
*198 _152_
*199 _153_
*200 _154_
*201 _155_
*202 _156_
*203 _157_
*204 _158_
*205 clknet_0_clk
*206 clknet_2_0__leaf_clk
*207 clknet_2_1__leaf_clk
*208 clknet_2_2__leaf_clk
*209 clknet_2_3__leaf_clk
*210 net1
*211 net10
*212 net11
*213 net12
*214 net2
*215 net22
*216 net23
*217 net24
*218 net25
*219 net26
*220 net27
*221 net28
*222 net29
*223 net3
*224 net30
*225 net31
*226 net32
*227 net33
*228 net34
*229 net4
*230 net5
*231 net6
*232 net7
*233 net8
*234 net9
*235 second_counter\[0\]
*236 second_counter\[10\]
*237 second_counter\[11\]
*238 second_counter\[12\]
*239 second_counter\[13\]
*240 second_counter\[14\]
*241 second_counter\[15\]
*242 second_counter\[16\]
*243 second_counter\[17\]
*244 second_counter\[18\]
*245 second_counter\[19\]
*246 second_counter\[1\]
*247 second_counter\[20\]
*248 second_counter\[21\]
*249 second_counter\[22\]
*250 second_counter\[23\]
*251 second_counter\[2\]
*252 second_counter\[3\]
*253 second_counter\[4\]
*254 second_counter\[5\]
*255 second_counter\[6\]
*256 second_counter\[7\]
*257 second_counter\[8\]
*258 second_counter\[9\]
*259 seg7\.counter\[0\]
*260 seg7\.counter\[1\]
*261 seg7\.counter\[2\]
*262 seg7\.counter\[3\]
*263 ANTENNA_1
*264 FILLER_0_0_109
*265 FILLER_0_0_113
*266 FILLER_0_0_125
*267 FILLER_0_0_137
*268 FILLER_0_0_141
*269 FILLER_0_0_15
*270 FILLER_0_0_153
*271 FILLER_0_0_165
*272 FILLER_0_0_169
*273 FILLER_0_0_181
*274 FILLER_0_0_193
*275 FILLER_0_0_197
*276 FILLER_0_0_209
*277 FILLER_0_0_221
*278 FILLER_0_0_225
*279 FILLER_0_0_237
*280 FILLER_0_0_249
*281 FILLER_0_0_253
*282 FILLER_0_0_265
*283 FILLER_0_0_27
*284 FILLER_0_0_277
*285 FILLER_0_0_281
*286 FILLER_0_0_29
*287 FILLER_0_0_293
*288 FILLER_0_0_3
*289 FILLER_0_0_305
*290 FILLER_0_0_309
*291 FILLER_0_0_321
*292 FILLER_0_0_333
*293 FILLER_0_0_337
*294 FILLER_0_0_349
*295 FILLER_0_0_41
*296 FILLER_0_0_53
*297 FILLER_0_0_57
*298 FILLER_0_0_69
*299 FILLER_0_0_81
*300 FILLER_0_0_85
*301 FILLER_0_0_97
*302 FILLER_0_10_109
*303 FILLER_0_10_121
*304 FILLER_0_10_133
*305 FILLER_0_10_139
*306 FILLER_0_10_141
*307 FILLER_0_10_15
*308 FILLER_0_10_153
*309 FILLER_0_10_165
*310 FILLER_0_10_177
*311 FILLER_0_10_189
*312 FILLER_0_10_195
*313 FILLER_0_10_197
*314 FILLER_0_10_209
*315 FILLER_0_10_221
*316 FILLER_0_10_233
*317 FILLER_0_10_245
*318 FILLER_0_10_251
*319 FILLER_0_10_253
*320 FILLER_0_10_265
*321 FILLER_0_10_27
*322 FILLER_0_10_277
*323 FILLER_0_10_289
*324 FILLER_0_10_29
*325 FILLER_0_10_3
*326 FILLER_0_10_301
*327 FILLER_0_10_307
*328 FILLER_0_10_309
*329 FILLER_0_10_321
*330 FILLER_0_10_333
*331 FILLER_0_10_345
*332 FILLER_0_10_41
*333 FILLER_0_10_53
*334 FILLER_0_10_65
*335 FILLER_0_10_77
*336 FILLER_0_10_83
*337 FILLER_0_10_85
*338 FILLER_0_10_97
*339 FILLER_0_11_105
*340 FILLER_0_11_111
*341 FILLER_0_11_113
*342 FILLER_0_11_125
*343 FILLER_0_11_137
*344 FILLER_0_11_149
*345 FILLER_0_11_15
*346 FILLER_0_11_161
*347 FILLER_0_11_167
*348 FILLER_0_11_169
*349 FILLER_0_11_181
*350 FILLER_0_11_193
*351 FILLER_0_11_205
*352 FILLER_0_11_217
*353 FILLER_0_11_223
*354 FILLER_0_11_225
*355 FILLER_0_11_237
*356 FILLER_0_11_249
*357 FILLER_0_11_261
*358 FILLER_0_11_27
*359 FILLER_0_11_273
*360 FILLER_0_11_279
*361 FILLER_0_11_281
*362 FILLER_0_11_293
*363 FILLER_0_11_3
*364 FILLER_0_11_305
*365 FILLER_0_11_317
*366 FILLER_0_11_329
*367 FILLER_0_11_335
*368 FILLER_0_11_337
*369 FILLER_0_11_349
*370 FILLER_0_11_39
*371 FILLER_0_11_51
*372 FILLER_0_11_55
*373 FILLER_0_11_57
*374 FILLER_0_11_69
*375 FILLER_0_11_81
*376 FILLER_0_11_93
*377 FILLER_0_12_109
*378 FILLER_0_12_121
*379 FILLER_0_12_133
*380 FILLER_0_12_139
*381 FILLER_0_12_141
*382 FILLER_0_12_15
*383 FILLER_0_12_153
*384 FILLER_0_12_165
*385 FILLER_0_12_177
*386 FILLER_0_12_189
*387 FILLER_0_12_195
*388 FILLER_0_12_197
*389 FILLER_0_12_209
*390 FILLER_0_12_221
*391 FILLER_0_12_233
*392 FILLER_0_12_245
*393 FILLER_0_12_251
*394 FILLER_0_12_253
*395 FILLER_0_12_265
*396 FILLER_0_12_27
*397 FILLER_0_12_277
*398 FILLER_0_12_289
*399 FILLER_0_12_29
*400 FILLER_0_12_3
*401 FILLER_0_12_301
*402 FILLER_0_12_307
*403 FILLER_0_12_309
*404 FILLER_0_12_321
*405 FILLER_0_12_333
*406 FILLER_0_12_345
*407 FILLER_0_12_41
*408 FILLER_0_12_53
*409 FILLER_0_12_65
*410 FILLER_0_12_77
*411 FILLER_0_12_83
*412 FILLER_0_12_85
*413 FILLER_0_12_97
*414 FILLER_0_13_105
*415 FILLER_0_13_111
*416 FILLER_0_13_113
*417 FILLER_0_13_125
*418 FILLER_0_13_137
*419 FILLER_0_13_149
*420 FILLER_0_13_15
*421 FILLER_0_13_161
*422 FILLER_0_13_167
*423 FILLER_0_13_169
*424 FILLER_0_13_181
*425 FILLER_0_13_193
*426 FILLER_0_13_205
*427 FILLER_0_13_217
*428 FILLER_0_13_223
*429 FILLER_0_13_225
*430 FILLER_0_13_237
*431 FILLER_0_13_249
*432 FILLER_0_13_261
*433 FILLER_0_13_27
*434 FILLER_0_13_273
*435 FILLER_0_13_279
*436 FILLER_0_13_281
*437 FILLER_0_13_293
*438 FILLER_0_13_3
*439 FILLER_0_13_305
*440 FILLER_0_13_317
*441 FILLER_0_13_329
*442 FILLER_0_13_335
*443 FILLER_0_13_337
*444 FILLER_0_13_349
*445 FILLER_0_13_39
*446 FILLER_0_13_51
*447 FILLER_0_13_55
*448 FILLER_0_13_57
*449 FILLER_0_13_69
*450 FILLER_0_13_81
*451 FILLER_0_13_93
*452 FILLER_0_14_109
*453 FILLER_0_14_121
*454 FILLER_0_14_133
*455 FILLER_0_14_139
*456 FILLER_0_14_141
*457 FILLER_0_14_15
*458 FILLER_0_14_153
*459 FILLER_0_14_165
*460 FILLER_0_14_177
*461 FILLER_0_14_189
*462 FILLER_0_14_195
*463 FILLER_0_14_197
*464 FILLER_0_14_209
*465 FILLER_0_14_221
*466 FILLER_0_14_233
*467 FILLER_0_14_245
*468 FILLER_0_14_251
*469 FILLER_0_14_253
*470 FILLER_0_14_265
*471 FILLER_0_14_27
*472 FILLER_0_14_277
*473 FILLER_0_14_289
*474 FILLER_0_14_29
*475 FILLER_0_14_3
*476 FILLER_0_14_301
*477 FILLER_0_14_307
*478 FILLER_0_14_309
*479 FILLER_0_14_321
*480 FILLER_0_14_333
*481 FILLER_0_14_345
*482 FILLER_0_14_41
*483 FILLER_0_14_53
*484 FILLER_0_14_65
*485 FILLER_0_14_77
*486 FILLER_0_14_83
*487 FILLER_0_14_85
*488 FILLER_0_14_97
*489 FILLER_0_15_105
*490 FILLER_0_15_111
*491 FILLER_0_15_113
*492 FILLER_0_15_125
*493 FILLER_0_15_137
*494 FILLER_0_15_149
*495 FILLER_0_15_15
*496 FILLER_0_15_161
*497 FILLER_0_15_167
*498 FILLER_0_15_169
*499 FILLER_0_15_181
*500 FILLER_0_15_193
*501 FILLER_0_15_205
*502 FILLER_0_15_217
*503 FILLER_0_15_223
*504 FILLER_0_15_225
*505 FILLER_0_15_237
*506 FILLER_0_15_249
*507 FILLER_0_15_261
*508 FILLER_0_15_27
*509 FILLER_0_15_273
*510 FILLER_0_15_279
*511 FILLER_0_15_281
*512 FILLER_0_15_293
*513 FILLER_0_15_3
*514 FILLER_0_15_305
*515 FILLER_0_15_317
*516 FILLER_0_15_329
*517 FILLER_0_15_335
*518 FILLER_0_15_337
*519 FILLER_0_15_349
*520 FILLER_0_15_39
*521 FILLER_0_15_51
*522 FILLER_0_15_55
*523 FILLER_0_15_57
*524 FILLER_0_15_69
*525 FILLER_0_15_81
*526 FILLER_0_15_93
*527 FILLER_0_16_109
*528 FILLER_0_16_121
*529 FILLER_0_16_133
*530 FILLER_0_16_139
*531 FILLER_0_16_141
*532 FILLER_0_16_15
*533 FILLER_0_16_153
*534 FILLER_0_16_165
*535 FILLER_0_16_177
*536 FILLER_0_16_189
*537 FILLER_0_16_195
*538 FILLER_0_16_197
*539 FILLER_0_16_209
*540 FILLER_0_16_221
*541 FILLER_0_16_233
*542 FILLER_0_16_245
*543 FILLER_0_16_251
*544 FILLER_0_16_253
*545 FILLER_0_16_265
*546 FILLER_0_16_27
*547 FILLER_0_16_277
*548 FILLER_0_16_289
*549 FILLER_0_16_29
*550 FILLER_0_16_3
*551 FILLER_0_16_301
*552 FILLER_0_16_307
*553 FILLER_0_16_309
*554 FILLER_0_16_321
*555 FILLER_0_16_333
*556 FILLER_0_16_345
*557 FILLER_0_16_41
*558 FILLER_0_16_53
*559 FILLER_0_16_65
*560 FILLER_0_16_77
*561 FILLER_0_16_83
*562 FILLER_0_16_85
*563 FILLER_0_16_97
*564 FILLER_0_17_105
*565 FILLER_0_17_111
*566 FILLER_0_17_113
*567 FILLER_0_17_125
*568 FILLER_0_17_137
*569 FILLER_0_17_149
*570 FILLER_0_17_15
*571 FILLER_0_17_161
*572 FILLER_0_17_167
*573 FILLER_0_17_169
*574 FILLER_0_17_181
*575 FILLER_0_17_193
*576 FILLER_0_17_205
*577 FILLER_0_17_217
*578 FILLER_0_17_223
*579 FILLER_0_17_225
*580 FILLER_0_17_237
*581 FILLER_0_17_249
*582 FILLER_0_17_261
*583 FILLER_0_17_27
*584 FILLER_0_17_273
*585 FILLER_0_17_279
*586 FILLER_0_17_281
*587 FILLER_0_17_293
*588 FILLER_0_17_3
*589 FILLER_0_17_305
*590 FILLER_0_17_317
*591 FILLER_0_17_329
*592 FILLER_0_17_335
*593 FILLER_0_17_337
*594 FILLER_0_17_349
*595 FILLER_0_17_39
*596 FILLER_0_17_51
*597 FILLER_0_17_55
*598 FILLER_0_17_57
*599 FILLER_0_17_69
*600 FILLER_0_17_81
*601 FILLER_0_17_93
*602 FILLER_0_18_109
*603 FILLER_0_18_121
*604 FILLER_0_18_133
*605 FILLER_0_18_139
*606 FILLER_0_18_141
*607 FILLER_0_18_15
*608 FILLER_0_18_153
*609 FILLER_0_18_165
*610 FILLER_0_18_177
*611 FILLER_0_18_189
*612 FILLER_0_18_195
*613 FILLER_0_18_197
*614 FILLER_0_18_209
*615 FILLER_0_18_221
*616 FILLER_0_18_233
*617 FILLER_0_18_245
*618 FILLER_0_18_251
*619 FILLER_0_18_253
*620 FILLER_0_18_265
*621 FILLER_0_18_27
*622 FILLER_0_18_277
*623 FILLER_0_18_289
*624 FILLER_0_18_29
*625 FILLER_0_18_3
*626 FILLER_0_18_301
*627 FILLER_0_18_307
*628 FILLER_0_18_309
*629 FILLER_0_18_321
*630 FILLER_0_18_333
*631 FILLER_0_18_345
*632 FILLER_0_18_41
*633 FILLER_0_18_53
*634 FILLER_0_18_65
*635 FILLER_0_18_77
*636 FILLER_0_18_83
*637 FILLER_0_18_85
*638 FILLER_0_18_97
*639 FILLER_0_19_105
*640 FILLER_0_19_111
*641 FILLER_0_19_113
*642 FILLER_0_19_125
*643 FILLER_0_19_137
*644 FILLER_0_19_149
*645 FILLER_0_19_15
*646 FILLER_0_19_161
*647 FILLER_0_19_167
*648 FILLER_0_19_169
*649 FILLER_0_19_181
*650 FILLER_0_19_193
*651 FILLER_0_19_205
*652 FILLER_0_19_217
*653 FILLER_0_19_223
*654 FILLER_0_19_225
*655 FILLER_0_19_237
*656 FILLER_0_19_249
*657 FILLER_0_19_261
*658 FILLER_0_19_27
*659 FILLER_0_19_273
*660 FILLER_0_19_279
*661 FILLER_0_19_281
*662 FILLER_0_19_293
*663 FILLER_0_19_3
*664 FILLER_0_19_305
*665 FILLER_0_19_317
*666 FILLER_0_19_329
*667 FILLER_0_19_335
*668 FILLER_0_19_337
*669 FILLER_0_19_349
*670 FILLER_0_19_39
*671 FILLER_0_19_51
*672 FILLER_0_19_55
*673 FILLER_0_19_57
*674 FILLER_0_19_69
*675 FILLER_0_19_81
*676 FILLER_0_19_93
*677 FILLER_0_1_105
*678 FILLER_0_1_111
*679 FILLER_0_1_113
*680 FILLER_0_1_125
*681 FILLER_0_1_137
*682 FILLER_0_1_149
*683 FILLER_0_1_15
*684 FILLER_0_1_161
*685 FILLER_0_1_167
*686 FILLER_0_1_169
*687 FILLER_0_1_181
*688 FILLER_0_1_193
*689 FILLER_0_1_205
*690 FILLER_0_1_217
*691 FILLER_0_1_223
*692 FILLER_0_1_225
*693 FILLER_0_1_237
*694 FILLER_0_1_249
*695 FILLER_0_1_261
*696 FILLER_0_1_27
*697 FILLER_0_1_273
*698 FILLER_0_1_279
*699 FILLER_0_1_281
*700 FILLER_0_1_293
*701 FILLER_0_1_3
*702 FILLER_0_1_305
*703 FILLER_0_1_317
*704 FILLER_0_1_329
*705 FILLER_0_1_335
*706 FILLER_0_1_337
*707 FILLER_0_1_349
*708 FILLER_0_1_39
*709 FILLER_0_1_51
*710 FILLER_0_1_55
*711 FILLER_0_1_57
*712 FILLER_0_1_69
*713 FILLER_0_1_81
*714 FILLER_0_1_93
*715 FILLER_0_20_109
*716 FILLER_0_20_121
*717 FILLER_0_20_133
*718 FILLER_0_20_139
*719 FILLER_0_20_141
*720 FILLER_0_20_15
*721 FILLER_0_20_153
*722 FILLER_0_20_165
*723 FILLER_0_20_177
*724 FILLER_0_20_189
*725 FILLER_0_20_195
*726 FILLER_0_20_197
*727 FILLER_0_20_209
*728 FILLER_0_20_221
*729 FILLER_0_20_233
*730 FILLER_0_20_245
*731 FILLER_0_20_251
*732 FILLER_0_20_253
*733 FILLER_0_20_265
*734 FILLER_0_20_27
*735 FILLER_0_20_277
*736 FILLER_0_20_289
*737 FILLER_0_20_29
*738 FILLER_0_20_3
*739 FILLER_0_20_301
*740 FILLER_0_20_307
*741 FILLER_0_20_309
*742 FILLER_0_20_321
*743 FILLER_0_20_333
*744 FILLER_0_20_345
*745 FILLER_0_20_41
*746 FILLER_0_20_53
*747 FILLER_0_20_65
*748 FILLER_0_20_77
*749 FILLER_0_20_83
*750 FILLER_0_20_85
*751 FILLER_0_20_97
*752 FILLER_0_21_105
*753 FILLER_0_21_111
*754 FILLER_0_21_113
*755 FILLER_0_21_125
*756 FILLER_0_21_137
*757 FILLER_0_21_149
*758 FILLER_0_21_15
*759 FILLER_0_21_161
*760 FILLER_0_21_167
*761 FILLER_0_21_169
*762 FILLER_0_21_181
*763 FILLER_0_21_193
*764 FILLER_0_21_205
*765 FILLER_0_21_217
*766 FILLER_0_21_223
*767 FILLER_0_21_225
*768 FILLER_0_21_237
*769 FILLER_0_21_249
*770 FILLER_0_21_261
*771 FILLER_0_21_27
*772 FILLER_0_21_273
*773 FILLER_0_21_279
*774 FILLER_0_21_281
*775 FILLER_0_21_293
*776 FILLER_0_21_3
*777 FILLER_0_21_305
*778 FILLER_0_21_317
*779 FILLER_0_21_329
*780 FILLER_0_21_335
*781 FILLER_0_21_337
*782 FILLER_0_21_349
*783 FILLER_0_21_39
*784 FILLER_0_21_51
*785 FILLER_0_21_55
*786 FILLER_0_21_57
*787 FILLER_0_21_69
*788 FILLER_0_21_81
*789 FILLER_0_21_93
*790 FILLER_0_22_109
*791 FILLER_0_22_121
*792 FILLER_0_22_133
*793 FILLER_0_22_139
*794 FILLER_0_22_141
*795 FILLER_0_22_15
*796 FILLER_0_22_153
*797 FILLER_0_22_165
*798 FILLER_0_22_177
*799 FILLER_0_22_189
*800 FILLER_0_22_195
*801 FILLER_0_22_197
*802 FILLER_0_22_209
*803 FILLER_0_22_221
*804 FILLER_0_22_233
*805 FILLER_0_22_245
*806 FILLER_0_22_251
*807 FILLER_0_22_253
*808 FILLER_0_22_265
*809 FILLER_0_22_27
*810 FILLER_0_22_277
*811 FILLER_0_22_289
*812 FILLER_0_22_29
*813 FILLER_0_22_3
*814 FILLER_0_22_301
*815 FILLER_0_22_307
*816 FILLER_0_22_309
*817 FILLER_0_22_321
*818 FILLER_0_22_333
*819 FILLER_0_22_345
*820 FILLER_0_22_41
*821 FILLER_0_22_53
*822 FILLER_0_22_65
*823 FILLER_0_22_77
*824 FILLER_0_22_83
*825 FILLER_0_22_85
*826 FILLER_0_22_97
*827 FILLER_0_23_105
*828 FILLER_0_23_111
*829 FILLER_0_23_113
*830 FILLER_0_23_125
*831 FILLER_0_23_137
*832 FILLER_0_23_149
*833 FILLER_0_23_15
*834 FILLER_0_23_161
*835 FILLER_0_23_167
*836 FILLER_0_23_169
*837 FILLER_0_23_181
*838 FILLER_0_23_193
*839 FILLER_0_23_205
*840 FILLER_0_23_217
*841 FILLER_0_23_223
*842 FILLER_0_23_225
*843 FILLER_0_23_237
*844 FILLER_0_23_249
*845 FILLER_0_23_261
*846 FILLER_0_23_27
*847 FILLER_0_23_273
*848 FILLER_0_23_279
*849 FILLER_0_23_281
*850 FILLER_0_23_293
*851 FILLER_0_23_3
*852 FILLER_0_23_305
*853 FILLER_0_23_317
*854 FILLER_0_23_329
*855 FILLER_0_23_335
*856 FILLER_0_23_337
*857 FILLER_0_23_349
*858 FILLER_0_23_39
*859 FILLER_0_23_51
*860 FILLER_0_23_55
*861 FILLER_0_23_57
*862 FILLER_0_23_69
*863 FILLER_0_23_81
*864 FILLER_0_23_93
*865 FILLER_0_24_109
*866 FILLER_0_24_121
*867 FILLER_0_24_133
*868 FILLER_0_24_139
*869 FILLER_0_24_141
*870 FILLER_0_24_15
*871 FILLER_0_24_153
*872 FILLER_0_24_165
*873 FILLER_0_24_177
*874 FILLER_0_24_189
*875 FILLER_0_24_195
*876 FILLER_0_24_197
*877 FILLER_0_24_209
*878 FILLER_0_24_221
*879 FILLER_0_24_233
*880 FILLER_0_24_245
*881 FILLER_0_24_251
*882 FILLER_0_24_253
*883 FILLER_0_24_265
*884 FILLER_0_24_27
*885 FILLER_0_24_277
*886 FILLER_0_24_289
*887 FILLER_0_24_29
*888 FILLER_0_24_3
*889 FILLER_0_24_301
*890 FILLER_0_24_307
*891 FILLER_0_24_309
*892 FILLER_0_24_321
*893 FILLER_0_24_333
*894 FILLER_0_24_345
*895 FILLER_0_24_41
*896 FILLER_0_24_53
*897 FILLER_0_24_65
*898 FILLER_0_24_77
*899 FILLER_0_24_83
*900 FILLER_0_24_85
*901 FILLER_0_24_97
*902 FILLER_0_25_105
*903 FILLER_0_25_111
*904 FILLER_0_25_113
*905 FILLER_0_25_125
*906 FILLER_0_25_137
*907 FILLER_0_25_149
*908 FILLER_0_25_15
*909 FILLER_0_25_161
*910 FILLER_0_25_167
*911 FILLER_0_25_169
*912 FILLER_0_25_181
*913 FILLER_0_25_193
*914 FILLER_0_25_205
*915 FILLER_0_25_217
*916 FILLER_0_25_223
*917 FILLER_0_25_225
*918 FILLER_0_25_237
*919 FILLER_0_25_249
*920 FILLER_0_25_261
*921 FILLER_0_25_27
*922 FILLER_0_25_273
*923 FILLER_0_25_279
*924 FILLER_0_25_281
*925 FILLER_0_25_293
*926 FILLER_0_25_3
*927 FILLER_0_25_305
*928 FILLER_0_25_317
*929 FILLER_0_25_329
*930 FILLER_0_25_335
*931 FILLER_0_25_337
*932 FILLER_0_25_349
*933 FILLER_0_25_39
*934 FILLER_0_25_51
*935 FILLER_0_25_55
*936 FILLER_0_25_57
*937 FILLER_0_25_69
*938 FILLER_0_25_81
*939 FILLER_0_25_93
*940 FILLER_0_26_109
*941 FILLER_0_26_121
*942 FILLER_0_26_133
*943 FILLER_0_26_139
*944 FILLER_0_26_141
*945 FILLER_0_26_15
*946 FILLER_0_26_153
*947 FILLER_0_26_165
*948 FILLER_0_26_177
*949 FILLER_0_26_189
*950 FILLER_0_26_195
*951 FILLER_0_26_197
*952 FILLER_0_26_209
*953 FILLER_0_26_221
*954 FILLER_0_26_233
*955 FILLER_0_26_245
*956 FILLER_0_26_251
*957 FILLER_0_26_253
*958 FILLER_0_26_265
*959 FILLER_0_26_27
*960 FILLER_0_26_277
*961 FILLER_0_26_285
*962 FILLER_0_26_29
*963 FILLER_0_26_290
*964 FILLER_0_26_3
*965 FILLER_0_26_302
*966 FILLER_0_26_309
*967 FILLER_0_26_321
*968 FILLER_0_26_333
*969 FILLER_0_26_345
*970 FILLER_0_26_41
*971 FILLER_0_26_53
*972 FILLER_0_26_65
*973 FILLER_0_26_77
*974 FILLER_0_26_83
*975 FILLER_0_26_85
*976 FILLER_0_26_97
*977 FILLER_0_27_105
*978 FILLER_0_27_111
*979 FILLER_0_27_113
*980 FILLER_0_27_125
*981 FILLER_0_27_137
*982 FILLER_0_27_149
*983 FILLER_0_27_15
*984 FILLER_0_27_161
*985 FILLER_0_27_167
*986 FILLER_0_27_169
*987 FILLER_0_27_181
*988 FILLER_0_27_193
*989 FILLER_0_27_205
*990 FILLER_0_27_217
*991 FILLER_0_27_223
*992 FILLER_0_27_225
*993 FILLER_0_27_233
*994 FILLER_0_27_250
*995 FILLER_0_27_27
*996 FILLER_0_27_275
*997 FILLER_0_27_279
*998 FILLER_0_27_281
*999 FILLER_0_27_3
*1000 FILLER_0_27_300
*1001 FILLER_0_27_312
*1002 FILLER_0_27_323
*1003 FILLER_0_27_335
*1004 FILLER_0_27_337
*1005 FILLER_0_27_349
*1006 FILLER_0_27_39
*1007 FILLER_0_27_51
*1008 FILLER_0_27_55
*1009 FILLER_0_27_57
*1010 FILLER_0_27_69
*1011 FILLER_0_27_81
*1012 FILLER_0_27_93
*1013 FILLER_0_28_109
*1014 FILLER_0_28_121
*1015 FILLER_0_28_133
*1016 FILLER_0_28_139
*1017 FILLER_0_28_15
*1018 FILLER_0_28_160
*1019 FILLER_0_28_174
*1020 FILLER_0_28_186
*1021 FILLER_0_28_192
*1022 FILLER_0_28_213
*1023 FILLER_0_28_231
*1024 FILLER_0_28_243
*1025 FILLER_0_28_253
*1026 FILLER_0_28_264
*1027 FILLER_0_28_27
*1028 FILLER_0_28_281
*1029 FILLER_0_28_29
*1030 FILLER_0_28_292
*1031 FILLER_0_28_298
*1032 FILLER_0_28_3
*1033 FILLER_0_28_325
*1034 FILLER_0_28_337
*1035 FILLER_0_28_349
*1036 FILLER_0_28_41
*1037 FILLER_0_28_53
*1038 FILLER_0_28_65
*1039 FILLER_0_28_77
*1040 FILLER_0_28_83
*1041 FILLER_0_28_85
*1042 FILLER_0_28_97
*1043 FILLER_0_29_105
*1044 FILLER_0_29_111
*1045 FILLER_0_29_113
*1046 FILLER_0_29_125
*1047 FILLER_0_29_137
*1048 FILLER_0_29_141
*1049 FILLER_0_29_15
*1050 FILLER_0_29_185
*1051 FILLER_0_29_196
*1052 FILLER_0_29_208
*1053 FILLER_0_29_223
*1054 FILLER_0_29_225
*1055 FILLER_0_29_251
*1056 FILLER_0_29_263
*1057 FILLER_0_29_27
*1058 FILLER_0_29_271
*1059 FILLER_0_29_278
*1060 FILLER_0_29_281
*1061 FILLER_0_29_3
*1062 FILLER_0_29_310
*1063 FILLER_0_29_314
*1064 FILLER_0_29_325
*1065 FILLER_0_29_334
*1066 FILLER_0_29_337
*1067 FILLER_0_29_346
*1068 FILLER_0_29_350
*1069 FILLER_0_29_39
*1070 FILLER_0_29_51
*1071 FILLER_0_29_55
*1072 FILLER_0_29_57
*1073 FILLER_0_29_69
*1074 FILLER_0_29_81
*1075 FILLER_0_29_93
*1076 FILLER_0_2_109
*1077 FILLER_0_2_121
*1078 FILLER_0_2_133
*1079 FILLER_0_2_139
*1080 FILLER_0_2_141
*1081 FILLER_0_2_15
*1082 FILLER_0_2_153
*1083 FILLER_0_2_165
*1084 FILLER_0_2_177
*1085 FILLER_0_2_189
*1086 FILLER_0_2_195
*1087 FILLER_0_2_197
*1088 FILLER_0_2_209
*1089 FILLER_0_2_221
*1090 FILLER_0_2_233
*1091 FILLER_0_2_245
*1092 FILLER_0_2_251
*1093 FILLER_0_2_253
*1094 FILLER_0_2_265
*1095 FILLER_0_2_27
*1096 FILLER_0_2_277
*1097 FILLER_0_2_289
*1098 FILLER_0_2_29
*1099 FILLER_0_2_3
*1100 FILLER_0_2_301
*1101 FILLER_0_2_307
*1102 FILLER_0_2_309
*1103 FILLER_0_2_321
*1104 FILLER_0_2_333
*1105 FILLER_0_2_345
*1106 FILLER_0_2_41
*1107 FILLER_0_2_53
*1108 FILLER_0_2_65
*1109 FILLER_0_2_77
*1110 FILLER_0_2_83
*1111 FILLER_0_2_85
*1112 FILLER_0_2_97
*1113 FILLER_0_30_109
*1114 FILLER_0_30_117
*1115 FILLER_0_30_121
*1116 FILLER_0_30_133
*1117 FILLER_0_30_139
*1118 FILLER_0_30_15
*1119 FILLER_0_30_150
*1120 FILLER_0_30_160
*1121 FILLER_0_30_172
*1122 FILLER_0_30_184
*1123 FILLER_0_30_213
*1124 FILLER_0_30_233
*1125 FILLER_0_30_250
*1126 FILLER_0_30_27
*1127 FILLER_0_30_29
*1128 FILLER_0_30_290
*1129 FILLER_0_30_3
*1130 FILLER_0_30_307
*1131 FILLER_0_30_325
*1132 FILLER_0_30_329
*1133 FILLER_0_30_349
*1134 FILLER_0_30_41
*1135 FILLER_0_30_53
*1136 FILLER_0_30_65
*1137 FILLER_0_30_77
*1138 FILLER_0_30_83
*1139 FILLER_0_30_85
*1140 FILLER_0_30_97
*1141 FILLER_0_31_107
*1142 FILLER_0_31_129
*1143 FILLER_0_31_15
*1144 FILLER_0_31_169
*1145 FILLER_0_31_187
*1146 FILLER_0_31_212
*1147 FILLER_0_31_219
*1148 FILLER_0_31_223
*1149 FILLER_0_31_231
*1150 FILLER_0_31_247
*1151 FILLER_0_31_259
*1152 FILLER_0_31_27
*1153 FILLER_0_31_271
*1154 FILLER_0_31_284
*1155 FILLER_0_31_288
*1156 FILLER_0_31_3
*1157 FILLER_0_31_300
*1158 FILLER_0_31_312
*1159 FILLER_0_31_330
*1160 FILLER_0_31_337
*1161 FILLER_0_31_346
*1162 FILLER_0_31_350
*1163 FILLER_0_31_39
*1164 FILLER_0_31_51
*1165 FILLER_0_31_55
*1166 FILLER_0_31_57
*1167 FILLER_0_31_69
*1168 FILLER_0_31_81
*1169 FILLER_0_31_93
*1170 FILLER_0_31_99
*1171 FILLER_0_32_109
*1172 FILLER_0_32_127
*1173 FILLER_0_32_139
*1174 FILLER_0_32_149
*1175 FILLER_0_32_15
*1176 FILLER_0_32_155
*1177 FILLER_0_32_166
*1178 FILLER_0_32_178
*1179 FILLER_0_32_200
*1180 FILLER_0_32_204
*1181 FILLER_0_32_210
*1182 FILLER_0_32_243
*1183 FILLER_0_32_251
*1184 FILLER_0_32_27
*1185 FILLER_0_32_29
*1186 FILLER_0_32_294
*1187 FILLER_0_32_3
*1188 FILLER_0_32_305
*1189 FILLER_0_32_309
*1190 FILLER_0_32_321
*1191 FILLER_0_32_331
*1192 FILLER_0_32_349
*1193 FILLER_0_32_41
*1194 FILLER_0_32_53
*1195 FILLER_0_32_65
*1196 FILLER_0_32_77
*1197 FILLER_0_32_83
*1198 FILLER_0_32_85
*1199 FILLER_0_33_102
*1200 FILLER_0_33_110
*1201 FILLER_0_33_113
*1202 FILLER_0_33_125
*1203 FILLER_0_33_139
*1204 FILLER_0_33_15
*1205 FILLER_0_33_163
*1206 FILLER_0_33_167
*1207 FILLER_0_33_185
*1208 FILLER_0_33_197
*1209 FILLER_0_33_220
*1210 FILLER_0_33_225
*1211 FILLER_0_33_229
*1212 FILLER_0_33_234
*1213 FILLER_0_33_248
*1214 FILLER_0_33_260
*1215 FILLER_0_33_268
*1216 FILLER_0_33_27
*1217 FILLER_0_33_273
*1218 FILLER_0_33_278
*1219 FILLER_0_33_290
*1220 FILLER_0_33_3
*1221 FILLER_0_33_313
*1222 FILLER_0_33_321
*1223 FILLER_0_33_332
*1224 FILLER_0_33_337
*1225 FILLER_0_33_347
*1226 FILLER_0_33_39
*1227 FILLER_0_33_51
*1228 FILLER_0_33_55
*1229 FILLER_0_33_57
*1230 FILLER_0_33_69
*1231 FILLER_0_33_81
*1232 FILLER_0_33_93
*1233 FILLER_0_34_107
*1234 FILLER_0_34_111
*1235 FILLER_0_34_125
*1236 FILLER_0_34_135
*1237 FILLER_0_34_141
*1238 FILLER_0_34_15
*1239 FILLER_0_34_162
*1240 FILLER_0_34_168
*1241 FILLER_0_34_172
*1242 FILLER_0_34_180
*1243 FILLER_0_34_191
*1244 FILLER_0_34_195
*1245 FILLER_0_34_203
*1246 FILLER_0_34_210
*1247 FILLER_0_34_222
*1248 FILLER_0_34_236
*1249 FILLER_0_34_240
*1250 FILLER_0_34_251
*1251 FILLER_0_34_27
*1252 FILLER_0_34_280
*1253 FILLER_0_34_29
*1254 FILLER_0_34_290
*1255 FILLER_0_34_3
*1256 FILLER_0_34_302
*1257 FILLER_0_34_309
*1258 FILLER_0_34_324
*1259 FILLER_0_34_332
*1260 FILLER_0_34_349
*1261 FILLER_0_34_41
*1262 FILLER_0_34_53
*1263 FILLER_0_34_65
*1264 FILLER_0_34_77
*1265 FILLER_0_34_83
*1266 FILLER_0_34_85
*1267 FILLER_0_35_103
*1268 FILLER_0_35_111
*1269 FILLER_0_35_113
*1270 FILLER_0_35_117
*1271 FILLER_0_35_125
*1272 FILLER_0_35_133
*1273 FILLER_0_35_149
*1274 FILLER_0_35_15
*1275 FILLER_0_35_161
*1276 FILLER_0_35_167
*1277 FILLER_0_35_172
*1278 FILLER_0_35_180
*1279 FILLER_0_35_190
*1280 FILLER_0_35_198
*1281 FILLER_0_35_208
*1282 FILLER_0_35_217
*1283 FILLER_0_35_223
*1284 FILLER_0_35_247
*1285 FILLER_0_35_255
*1286 FILLER_0_35_27
*1287 FILLER_0_35_270
*1288 FILLER_0_35_276
*1289 FILLER_0_35_287
*1290 FILLER_0_35_3
*1291 FILLER_0_35_302
*1292 FILLER_0_35_306
*1293 FILLER_0_35_314
*1294 FILLER_0_35_333
*1295 FILLER_0_35_337
*1296 FILLER_0_35_349
*1297 FILLER_0_35_39
*1298 FILLER_0_35_51
*1299 FILLER_0_35_55
*1300 FILLER_0_35_57
*1301 FILLER_0_35_69
*1302 FILLER_0_35_81
*1303 FILLER_0_35_93
*1304 FILLER_0_35_98
*1305 FILLER_0_36_111
*1306 FILLER_0_36_119
*1307 FILLER_0_36_132
*1308 FILLER_0_36_141
*1309 FILLER_0_36_149
*1310 FILLER_0_36_15
*1311 FILLER_0_36_167
*1312 FILLER_0_36_173
*1313 FILLER_0_36_179
*1314 FILLER_0_36_189
*1315 FILLER_0_36_195
*1316 FILLER_0_36_197
*1317 FILLER_0_36_201
*1318 FILLER_0_36_221
*1319 FILLER_0_36_233
*1320 FILLER_0_36_245
*1321 FILLER_0_36_251
*1322 FILLER_0_36_253
*1323 FILLER_0_36_27
*1324 FILLER_0_36_271
*1325 FILLER_0_36_279
*1326 FILLER_0_36_285
*1327 FILLER_0_36_29
*1328 FILLER_0_36_293
*1329 FILLER_0_36_3
*1330 FILLER_0_36_305
*1331 FILLER_0_36_309
*1332 FILLER_0_36_317
*1333 FILLER_0_36_326
*1334 FILLER_0_36_330
*1335 FILLER_0_36_347
*1336 FILLER_0_36_41
*1337 FILLER_0_36_53
*1338 FILLER_0_36_65
*1339 FILLER_0_36_77
*1340 FILLER_0_36_83
*1341 FILLER_0_36_85
*1342 FILLER_0_37_110
*1343 FILLER_0_37_113
*1344 FILLER_0_37_135
*1345 FILLER_0_37_149
*1346 FILLER_0_37_15
*1347 FILLER_0_37_167
*1348 FILLER_0_37_186
*1349 FILLER_0_37_198
*1350 FILLER_0_37_210
*1351 FILLER_0_37_220
*1352 FILLER_0_37_242
*1353 FILLER_0_37_250
*1354 FILLER_0_37_258
*1355 FILLER_0_37_27
*1356 FILLER_0_37_272
*1357 FILLER_0_37_278
*1358 FILLER_0_37_284
*1359 FILLER_0_37_3
*1360 FILLER_0_37_300
*1361 FILLER_0_37_317
*1362 FILLER_0_37_337
*1363 FILLER_0_37_349
*1364 FILLER_0_37_39
*1365 FILLER_0_37_51
*1366 FILLER_0_37_55
*1367 FILLER_0_37_57
*1368 FILLER_0_37_69
*1369 FILLER_0_37_81
*1370 FILLER_0_37_93
*1371 FILLER_0_38_104
*1372 FILLER_0_38_110
*1373 FILLER_0_38_119
*1374 FILLER_0_38_124
*1375 FILLER_0_38_139
*1376 FILLER_0_38_145
*1377 FILLER_0_38_15
*1378 FILLER_0_38_157
*1379 FILLER_0_38_164
*1380 FILLER_0_38_169
*1381 FILLER_0_38_177
*1382 FILLER_0_38_197
*1383 FILLER_0_38_215
*1384 FILLER_0_38_223
*1385 FILLER_0_38_225
*1386 FILLER_0_38_229
*1387 FILLER_0_38_247
*1388 FILLER_0_38_251
*1389 FILLER_0_38_253
*1390 FILLER_0_38_257
*1391 FILLER_0_38_268
*1392 FILLER_0_38_27
*1393 FILLER_0_38_279
*1394 FILLER_0_38_29
*1395 FILLER_0_38_298
*1396 FILLER_0_38_3
*1397 FILLER_0_38_302
*1398 FILLER_0_38_309
*1399 FILLER_0_38_321
*1400 FILLER_0_38_333
*1401 FILLER_0_38_337
*1402 FILLER_0_38_349
*1403 FILLER_0_38_41
*1404 FILLER_0_38_53
*1405 FILLER_0_38_57
*1406 FILLER_0_38_68
*1407 FILLER_0_38_74
*1408 FILLER_0_38_80
*1409 FILLER_0_38_88
*1410 FILLER_0_38_92
*1411 FILLER_0_38_98
*1412 FILLER_0_3_105
*1413 FILLER_0_3_111
*1414 FILLER_0_3_113
*1415 FILLER_0_3_125
*1416 FILLER_0_3_137
*1417 FILLER_0_3_149
*1418 FILLER_0_3_15
*1419 FILLER_0_3_161
*1420 FILLER_0_3_167
*1421 FILLER_0_3_169
*1422 FILLER_0_3_181
*1423 FILLER_0_3_193
*1424 FILLER_0_3_205
*1425 FILLER_0_3_217
*1426 FILLER_0_3_223
*1427 FILLER_0_3_225
*1428 FILLER_0_3_237
*1429 FILLER_0_3_249
*1430 FILLER_0_3_261
*1431 FILLER_0_3_27
*1432 FILLER_0_3_273
*1433 FILLER_0_3_279
*1434 FILLER_0_3_281
*1435 FILLER_0_3_293
*1436 FILLER_0_3_3
*1437 FILLER_0_3_305
*1438 FILLER_0_3_317
*1439 FILLER_0_3_329
*1440 FILLER_0_3_335
*1441 FILLER_0_3_337
*1442 FILLER_0_3_349
*1443 FILLER_0_3_39
*1444 FILLER_0_3_51
*1445 FILLER_0_3_55
*1446 FILLER_0_3_57
*1447 FILLER_0_3_69
*1448 FILLER_0_3_81
*1449 FILLER_0_3_93
*1450 FILLER_0_4_109
*1451 FILLER_0_4_121
*1452 FILLER_0_4_133
*1453 FILLER_0_4_139
*1454 FILLER_0_4_141
*1455 FILLER_0_4_15
*1456 FILLER_0_4_153
*1457 FILLER_0_4_165
*1458 FILLER_0_4_177
*1459 FILLER_0_4_189
*1460 FILLER_0_4_195
*1461 FILLER_0_4_197
*1462 FILLER_0_4_209
*1463 FILLER_0_4_221
*1464 FILLER_0_4_233
*1465 FILLER_0_4_245
*1466 FILLER_0_4_251
*1467 FILLER_0_4_253
*1468 FILLER_0_4_265
*1469 FILLER_0_4_27
*1470 FILLER_0_4_277
*1471 FILLER_0_4_289
*1472 FILLER_0_4_29
*1473 FILLER_0_4_3
*1474 FILLER_0_4_301
*1475 FILLER_0_4_307
*1476 FILLER_0_4_309
*1477 FILLER_0_4_321
*1478 FILLER_0_4_333
*1479 FILLER_0_4_345
*1480 FILLER_0_4_41
*1481 FILLER_0_4_53
*1482 FILLER_0_4_65
*1483 FILLER_0_4_77
*1484 FILLER_0_4_83
*1485 FILLER_0_4_85
*1486 FILLER_0_4_97
*1487 FILLER_0_5_105
*1488 FILLER_0_5_111
*1489 FILLER_0_5_113
*1490 FILLER_0_5_125
*1491 FILLER_0_5_137
*1492 FILLER_0_5_149
*1493 FILLER_0_5_15
*1494 FILLER_0_5_161
*1495 FILLER_0_5_167
*1496 FILLER_0_5_169
*1497 FILLER_0_5_181
*1498 FILLER_0_5_193
*1499 FILLER_0_5_205
*1500 FILLER_0_5_217
*1501 FILLER_0_5_223
*1502 FILLER_0_5_225
*1503 FILLER_0_5_237
*1504 FILLER_0_5_249
*1505 FILLER_0_5_261
*1506 FILLER_0_5_27
*1507 FILLER_0_5_273
*1508 FILLER_0_5_279
*1509 FILLER_0_5_281
*1510 FILLER_0_5_293
*1511 FILLER_0_5_3
*1512 FILLER_0_5_305
*1513 FILLER_0_5_317
*1514 FILLER_0_5_329
*1515 FILLER_0_5_335
*1516 FILLER_0_5_337
*1517 FILLER_0_5_349
*1518 FILLER_0_5_39
*1519 FILLER_0_5_51
*1520 FILLER_0_5_55
*1521 FILLER_0_5_57