*SPEF "ieee 1481-1999"
*DESIGN "tt_um_supertails_tetris"
*DATE "11:11:11 Fri 11 11, 1111"
*VENDOR "OpenRCX"
*PROGRAM "Parallel Extraction"
*VERSION "1.0"
*DESIGN_FLOW "NAME_SCOPE LOCAL" "PIN_CAP NONE"
*DIVIDER /
*DELIMITER :
*BUS_DELIMITER []
*T_UNIT 1 NS
*C_UNIT 1 PF
*R_UNIT 1 OHM
*L_UNIT 1 HENRY

*NAME_MAP
*3 clk
*4 ena
*5 rst_n
*6 ui_in[0]
*7 ui_in[1]
*8 ui_in[2]
*9 ui_in[3]
*10 ui_in[4]
*11 ui_in[5]
*12 ui_in[6]
*13 ui_in[7]
*14 uio_in[0]
*15 uio_in[1]
*16 uio_in[2]
*17 uio_in[3]
*18 uio_in[4]
*19 uio_in[5]
*20 uio_in[6]
*21 uio_in[7]
*22 uio_oe[0]
*23 uio_oe[1]
*24 uio_oe[2]
*25 uio_oe[3]
*26 uio_oe[4]
*27 uio_oe[5]
*28 net12
*29 net14
*30 uio_out[0]
*31 uio_out[1]
*32 uio_out[2]
*33 uio_out[3]
*34 uio_out[4]
*35 uio_out[5]
*36 net13
*37 uio_out[7]
*38 uo_out[0]
*39 uo_out[1]
*40 uo_out[2]
*41 uo_out[3]
*42 uo_out[4]
*43 uo_out[5]
*44 uo_out[6]
*45 uo_out[7]
*46 _0000_
*47 _0001_
*48 _0002_
*49 _0003_
*50 _0004_
*51 _0005_
*52 _0006_
*53 _0007_
*54 _0008_
*55 _0009_
*56 _0010_
*57 _0011_
*58 _0012_
*59 _0013_
*60 _0014_
*61 _0015_
*62 _0016_
*63 _0017_
*64 _0018_
*65 _0019_
*66 _0020_
*67 _0021_
*68 _0022_
*69 _0023_
*70 _0024_
*71 _0025_
*72 _0026_
*73 _0027_
*74 _0028_
*75 _0029_
*76 _0030_
*77 _0031_
*78 _0032_
*79 _0033_
*80 _0034_
*81 _0035_
*82 _0036_
*83 _0037_
*84 _0038_
*85 _0039_
*86 _0040_
*87 _0041_
*88 _0042_
*89 _0043_
*90 _0044_
*91 _0045_
*92 _0046_
*93 _0047_
*94 _0048_
*95 _0049_
*96 _0050_
*97 _0051_
*98 _0052_
*99 _0053_
*100 _0054_
*101 _0055_
*102 _0056_
*103 _0057_
*104 _0058_
*105 _0059_
*106 _0060_
*107 _0061_
*108 _0062_
*109 _0063_
*110 _0064_
*111 _0065_
*112 _0066_
*113 _0067_
*114 _0068_
*115 _0069_
*116 _0070_
*117 _0071_
*118 _0072_
*119 _0073_
*120 _0074_
*121 _0075_
*122 _0076_
*123 _0077_
*124 _0078_
*125 _0079_
*126 _0080_
*127 _0081_
*128 _0082_
*129 _0083_
*130 _0084_
*131 _0085_
*132 _0086_
*133 _0087_
*134 _0088_
*135 _0089_
*136 _0090_
*137 _0091_
*138 _0092_
*139 _0093_
*140 _0094_
*141 _0095_
*142 _0096_
*143 _0097_
*144 _0098_
*145 _0099_
*146 _0100_
*147 _0101_
*148 _0102_
*149 _0103_
*150 _0104_
*151 _0105_
*152 _0106_
*153 _0107_
*154 _0108_
*155 _0109_
*156 _0110_
*157 _0111_
*158 _0112_
*159 _0113_
*160 _0114_
*161 _0115_
*162 _0116_
*163 _0117_
*164 _0118_
*165 _0119_
*166 _0120_
*167 _0121_
*168 _0122_
*169 _0123_
*170 _0124_
*171 _0125_
*172 _0126_
*173 _0127_
*174 _0128_
*175 _0129_
*176 _0130_
*177 _0131_
*178 _0132_
*179 _0133_
*180 _0134_
*181 _0135_
*182 _0136_
*183 _0137_
*184 _0138_
*185 _0139_
*186 _0140_
*187 _0141_
*188 _0142_
*189 _0143_
*190 _0144_
*191 _0145_
*192 _0146_
*193 _0147_
*194 _0148_
*195 _0149_
*196 _0150_
*197 _0151_
*198 _0152_
*199 _0153_
*200 _0154_
*201 _0155_
*202 _0156_
*203 _0157_
*204 _0158_
*205 _0159_
*206 _0160_
*207 _0161_
*208 _0162_
*209 _0163_
*210 _0164_
*211 _0165_
*212 _0166_
*213 _0167_
*214 _0168_
*215 _0169_
*216 _0170_
*217 _0171_
*218 _0172_
*219 _0173_
*220 _0174_
*221 _0175_
*222 _0176_
*223 _0177_
*224 _0178_
*225 _0179_
*226 _0180_
*227 _0181_
*228 _0182_
*229 _0183_
*230 _0184_
*231 _0185_
*232 _0186_
*233 _0187_
*234 _0188_
*235 _0189_
*236 _0190_
*237 _0191_
*238 _0192_
*239 _0193_
*240 _0194_
*241 _0195_
*242 _0196_
*243 _0197_
*244 _0198_
*245 _0199_
*246 _0200_
*247 _0201_
*248 _0202_
*249 _0203_
*250 _0204_
*251 _0205_
*252 _0206_
*253 _0207_
*254 _0208_
*255 _0209_
*256 _0210_
*257 _0211_
*258 _0212_
*259 _0213_
*260 _0214_
*261 _0215_
*262 _0216_
*263 _0217_
*264 _0218_
*265 _0219_
*266 _0220_
*267 _0221_
*268 _0222_
*269 _0223_
*270 _0224_
*271 _0225_
*272 _0226_
*273 _0227_
*274 _0228_
*275 _0229_
*276 _0230_
*277 _0231_
*278 _0232_
*279 _0233_
*280 _0234_
*281 _0235_
*282 _0236_
*283 _0237_
*284 _0238_
*285 _0239_
*286 _0240_
*287 _0241_
*288 _0242_
*289 _0243_
*290 _0244_
*291 _0245_
*292 _0246_
*293 _0247_
*294 _0248_
*295 _0249_
*296 _0250_
*297 _0251_
*298 _0252_
*299 _0253_
*300 _0254_
*301 _0255_
*302 _0256_
*303 _0257_
*304 _0258_
*305 _0259_
*306 _0260_
*307 _0261_
*308 _0262_
*309 _0263_
*310 _0264_
*311 _0265_
*312 _0266_
*313 _0267_
*314 _0268_
*315 _0269_
*316 _0270_
*317 _0271_
*318 _0272_
*319 _0273_
*320 _0274_
*321 _0275_
*322 _0276_
*323 _0277_
*324 _0278_
*325 _0279_
*326 _0280_
*327 _0281_
*328 _0282_
*329 _0283_
*330 _0284_
*331 _0285_
*332 _0286_
*333 _0287_
*334 _0288_
*335 _0289_
*336 _0290_
*337 _0291_
*338 _0292_
*339 _0293_
*340 _0294_
*341 _0295_
*342 _0296_
*343 _0297_
*344 _0298_
*345 _0299_
*346 _0300_
*347 _0301_
*348 _0302_
*349 _0303_
*350 _0304_
*351 _0305_
*352 _0306_
*353 _0307_
*354 _0308_
*355 _0309_
*356 _0310_
*357 _0311_
*358 _0312_
*359 _0313_
*360 _0314_
*361 _0315_
*362 _0316_
*363 _0317_
*364 _0318_
*365 _0319_
*366 _0320_
*367 _0321_
*368 _0322_
*369 _0323_
*370 _0324_
*371 _0325_
*372 _0326_
*373 _0327_
*374 _0328_
*375 _0329_
*376 _0330_
*377 _0331_
*378 _0332_
*379 _0333_
*380 _0334_
*381 _0335_
*382 _0336_
*383 _0337_
*384 _0338_
*385 _0339_
*386 _0340_
*387 _0341_
*388 _0342_
*389 _0343_
*390 _0344_
*391 _0345_
*392 _0346_
*393 _0347_
*394 _0348_
*395 _0349_
*396 _0350_
*397 _0351_
*398 _0352_
*399 _0353_
*400 _0354_
*401 _0355_
*402 _0356_
*403 _0357_
*404 _0358_
*405 _0359_
*406 _0360_
*407 _0361_
*408 _0362_
*409 _0363_
*410 _0364_
*411 _0365_
*412 _0366_
*413 _0367_
*414 _0368_
*415 _0369_
*416 _0370_
*417 _0371_
*418 _0372_
*419 _0373_
*420 _0374_
*421 _0375_
*422 _0376_
*423 _0377_
*424 _0378_
*425 _0379_
*426 _0380_
*427 _0381_
*428 _0382_
*429 _0383_
*430 _0384_
*431 _0385_
*432 _0386_
*433 _0387_
*434 _0388_
*435 _0389_
*436 _0390_
*437 _0391_
*438 _0392_
*439 _0393_
*440 _0394_
*441 _0395_
*442 _0396_
*443 _0397_
*444 _0398_
*445 _0399_
*446 _0400_
*447 _0401_
*448 _0402_
*449 _0403_
*450 _0404_
*451 _0405_
*452 _0406_
*453 _0407_
*454 _0408_
*455 _0409_
*456 _0410_
*457 _0411_
*458 _0412_
*459 _0413_
*460 _0414_
*461 _0415_
*462 _0416_
*463 _0417_
*464 _0418_
*465 _0419_
*466 _0420_
*467 _0421_
*468 _0422_
*469 _0423_
*470 _0424_
*471 _0425_
*472 _0426_
*473 _0427_
*474 _0428_
*475 _0429_
*476 _0430_
*477 _0431_
*478 _0432_
*479 _0433_
*480 _0434_
*481 _0435_
*482 _0436_
*483 _0437_
*484 _0438_
*485 _0439_
*486 _0440_
*487 _0441_
*488 _0442_
*489 _0443_
*490 _0444_
*491 _0445_
*492 _0446_
*493 _0447_
*494 _0448_
*495 _0449_
*496 _0450_
*497 _0451_
*498 _0452_
*499 _0453_
*500 _0454_
*501 _0455_
*502 _0456_
*503 _0457_
*504 _0458_
*505 _0459_
*506 _0460_
*507 _0461_
*508 _0462_
*509 _0463_
*510 _0464_
*511 _0465_
*512 _0466_
*513 _0467_
*514 _0468_
*515 _0469_
*516 _0470_
*517 _0471_
*518 _0472_
*519 _0473_
*520 _0474_
*521 _0475_
*522 _0476_
*523 _0477_
*524 _0478_
*525 _0479_
*526 _0480_
*527 _0481_
*528 _0482_
*529 _0483_
*530 _0484_
*531 _0485_
*532 _0486_
*533 _0487_
*534 _0488_
*535 _0489_
*536 _0490_
*537 _0491_
*538 _0492_
*539 _0493_
*540 _0494_
*541 _0495_
*542 _0496_
*543 _0497_
*544 _0498_
*545 _0499_
*546 _0500_
*547 _0501_
*548 _0502_
*549 _0503_
*550 _0504_
*551 _0505_
*552 _0506_
*553 _0507_
*554 _0508_
*555 _0509_
*556 _0510_
*557 _0511_
*558 _0512_
*559 _0513_
*560 _0514_
*561 _0515_
*562 _0516_
*563 _0517_
*564 _0518_
*565 _0519_
*566 _0520_
*567 _0521_
*568 _0522_
*569 _0523_
*570 _0524_
*571 _0525_
*572 _0526_
*573 _0527_
*574 _0528_
*575 _0529_
*576 _0530_
*577 _0531_
*578 _0532_
*579 _0533_
*580 _0534_
*581 _0535_
*582 _0536_
*583 _0537_
*584 _0538_
*585 _0539_
*586 _0540_
*587 _0541_
*588 _0542_
*589 _0543_
*590 _0544_
*591 _0545_
*592 _0546_
*593 _0547_
*594 _0548_
*595 _0549_
*596 _0550_
*597 _0551_
*598 _0552_
*599 _0553_
*600 _0554_
*601 _0555_
*602 _0556_
*603 _0557_
*604 _0558_
*605 _0559_
*606 _0560_
*607 _0561_
*608 _0562_
*609 _0563_
*610 _0564_
*611 _0565_
*612 _0566_
*613 _0567_
*614 _0568_
*615 _0569_
*616 _0570_
*617 _0571_
*618 _0572_
*619 _0573_
*620 _0574_
*621 _0575_
*622 _0576_
*623 _0577_
*624 _0578_
*625 _0579_
*626 _0580_
*627 _0581_
*628 _0582_
*629 _0583_
*630 _0584_
*631 _0585_
*632 _0586_
*633 _0587_
*634 _0588_
*635 _0589_
*636 _0590_
*637 _0591_
*638 _0592_
*639 _0593_
*640 _0594_
*641 _0595_
*642 _0596_
*643 _0597_
*644 _0598_
*645 _0599_
*646 _0600_
*647 _0601_
*648 _0602_
*649 _0603_
*650 _0604_
*651 _0605_
*652 _0606_
*653 _0607_
*654 _0608_
*655 _0609_
*656 _0610_
*657 _0611_
*658 _0612_
*659 _0613_
*660 _0614_
*661 _0615_
*662 _0616_
*663 _0617_
*664 _0618_
*665 _0619_
*666 _0620_
*667 _0621_
*668 _0622_
*669 _0623_
*670 _0624_
*671 _0625_
*672 _0626_
*673 _0627_
*674 _0628_
*675 _0629_
*676 _0630_
*677 _0631_
*678 _0632_
*679 _0633_
*680 _0634_
*681 _0635_
*682 _0636_
*683 _0637_
*684 _0638_
*685 _0639_
*686 _0640_
*687 _0641_
*688 _0642_
*689 _0643_
*690 _0644_
*691 _0645_
*692 _0646_
*693 _0647_
*694 _0648_
*695 _0649_
*696 _0650_
*697 _0651_
*698 _0652_
*699 _0653_
*700 _0654_
*701 _0655_
*702 _0656_
*703 _0657_
*704 _0658_
*705 _0659_
*706 _0660_
*707 _0661_
*708 _0662_
*709 _0663_
*710 _0664_
*711 _0665_
*712 _0666_
*713 _0667_
*714 _0668_
*715 _0669_
*716 _0670_
*717 _0671_
*718 _0672_
*719 _0673_
*720 _0674_
*721 _0675_
*722 _0676_
*723 _0677_
*724 _0678_
*725 _0679_
*726 _0680_
*727 _0681_
*728 _0682_
*729 _0683_
*730 _0684_
*731 _0685_
*732 _0686_
*733 _0687_
*734 _0688_
*735 _0689_
*736 _0690_
*737 _0691_
*738 _0692_
*739 _0693_
*740 _0694_
*741 _0695_
*742 _0696_
*743 _0697_
*744 _0698_
*745 _0699_
*746 _0700_
*747 _0701_
*748 _0702_
*749 _0703_
*750 _0704_
*751 _0705_
*752 _0706_
*753 _0707_
*754 _0708_
*755 _0709_
*756 _0710_
*757 _0711_
*758 _0712_
*759 _0713_
*760 _0714_
*761 _0715_
*762 _0716_
*763 _0717_
*764 _0718_
*765 _0719_
*766 _0720_
*767 _0721_
*768 _0722_
*769 _0723_
*770 _0724_
*771 _0725_
*772 _0726_
*773 _0727_
*774 _0728_
*775 _0729_
*776 _0730_
*777 _0731_
*778 _0732_
*779 _0733_
*780 _0734_
*781 _0735_
*782 _0736_
*783 _0737_
*784 _0738_
*785 _0739_
*786 _0740_
*787 _0741_
*788 _0742_
*789 _0743_
*790 _0744_
*791 _0745_
*792 _0746_
*793 _0747_
*794 _0748_
*795 _0749_
*796 _0750_
*797 _0751_
*798 _0752_
*799 _0753_
*800 _0754_
*801 _0755_
*802 _0756_
*803 _0757_
*804 _0758_
*805 _0759_
*806 _0760_
*807 _0761_
*808 _0762_
*809 _0763_
*810 _0764_
*811 _0765_
*812 _0766_
*813 _0767_
*814 _0768_
*815 _0769_
*816 _0770_
*817 _0771_
*818 _0772_
*819 _0773_
*820 _0774_
*821 _0775_
*822 _0776_
*823 _0777_
*824 _0778_
*825 _0779_
*826 _0780_
*827 _0781_
*828 _0782_
*829 _0783_
*830 _0784_
*831 _0785_
*832 _0786_
*833 _0787_
*834 _0788_
*835 _0789_
*836 _0790_
*837 _0791_
*838 _0792_
*839 _0793_
*840 _0794_
*841 _0795_
*842 _0796_
*843 _0797_
*844 _0798_
*845 _0799_
*846 _0800_
*847 _0801_
*848 _0802_
*849 _0803_
*850 _0804_
*851 _0805_
*852 _0806_
*853 _0807_
*854 _0808_
*855 _0809_
*856 _0810_
*857 _0811_
*858 _0812_
*859 _0813_
*860 _0814_
*861 _0815_
*862 _0816_
*863 _0817_
*864 _0818_
*865 _0819_
*866 _0820_
*867 _0821_
*868 _0822_
*869 _0823_
*870 _0824_
*871 _0825_
*872 _0826_
*873 _0827_
*874 _0828_
*875 _0829_
*876 _0830_
*877 _0831_
*878 _0832_
*879 _0833_
*880 _0834_
*881 _0835_
*882 _0836_
*883 _0837_
*884 _0838_
*885 _0839_
*886 _0840_
*887 _0841_
*888 _0842_
*889 _0843_
*890 _0844_
*891 _0845_
*892 _0846_
*893 _0847_
*894 _0848_
*895 _0849_
*896 _0850_
*897 _0851_
*898 _0852_
*899 _0853_
*900 _0854_
*901 _0855_
*902 _0856_
*903 _0857_
*904 _0858_
*905 _0859_
*906 _0860_
*907 _0861_
*908 _0862_
*909 _0863_
*910 _0864_
*911 _0865_
*912 _0866_
*913 _0867_
*914 _0868_
*915 _0869_
*916 _0870_
*917 _0871_
*918 _0872_
*919 _0873_
*920 _0874_
*921 _0875_
*922 _0876_
*923 _0877_
*924 _0878_
*925 _0879_
*926 _0880_
*927 _0881_
*928 _0882_
*929 _0883_
*930 _0884_
*931 _0885_
*932 _0886_
*933 _0887_
*934 _0888_
*935 _0889_
*936 _0890_
*937 _0891_
*938 _0892_
*939 _0893_
*940 _0894_
*941 _0895_
*942 _0896_
*943 _0897_
*944 _0898_
*945 _0899_
*946 _0900_
*947 _0901_
*948 _0902_
*949 _0903_
*950 _0904_
*951 _0905_
*952 _0906_
*953 _0907_
*954 _0908_
*955 _0909_
*956 _0910_
*957 _0911_
*958 _0912_
*959 _0913_
*960 _0914_
*961 _0915_
*962 _0916_
*963 _0917_
*964 _0918_
*965 _0919_
*966 _0920_
*967 _0921_
*968 _0922_
*969 _0923_
*970 _0924_
*971 _0925_
*972 _0926_
*973 _0927_
*974 _0928_
*975 _0929_
*976 _0930_
*977 _0931_
*978 _0932_
*979 _0933_
*980 _0934_
*981 _0935_
*982 _0936_
*983 _0937_
*984 _0938_
*985 _0939_
*986 _0940_
*987 _0941_
*988 _0942_
*989 _0943_
*990 _0944_
*991 _0945_
*992 _0946_
*993 _0947_
*994 _0948_
*995 _0949_
*996 _0950_
*997 _0951_
*998 _0952_
*999 _0953_
*1000 _0954_
*1001 _0955_
*1002 _0956_
*1003 _0957_
*1004 _0958_
*1005 _0959_
*1006 _0960_
*1007 _0961_
*1008 _0962_
*1009 _0963_
*1010 _0964_
*1011 _0965_
*1012 _0966_
*1013 _0967_
*1014 _0968_
*1015 _0969_
*1016 _0970_
*1017 _0971_
*1018 _0972_
*1019 _0973_
*1020 _0974_
*1021 _0975_
*1022 _0976_
*1023 _0977_
*1024 _0978_
*1025 _0979_
*1026 _0980_
*1027 _0981_
*1028 _0982_
*1029 _0983_
*1030 _0984_
*1031 _0985_
*1032 _0986_
*1033 _0987_
*1034 _0988_
*1035 _0989_
*1036 _0990_
*1037 _0991_
*1038 _0992_
*1039 _0993_
*1040 _0994_
*1041 _0995_
*1042 _0996_
*1043 _0997_
*1044 _0998_
*1045 _0999_
*1046 _1000_
*1047 _1001_
*1048 _1002_
*1049 _1003_
*1050 _1004_
*1051 _1005_
*1052 _1006_
*1053 _1007_
*1054 _1008_
*1055 _1009_
*1056 _1010_
*1057 _1011_
*1058 _1012_
*1059 _1013_
*1060 _1014_
*1061 _1015_
*1062 _1016_
*1063 _1017_
*1064 _1018_
*1065 _1019_
*1066 _1020_
*1067 _1021_
*1068 _1022_
*1069 _1023_
*1070 _1024_
*1071 _1025_
*1072 _1026_
*1073 _1027_
*1074 _1028_
*1075 _1029_
*1076 buttons_q0\[0\]
*1077 buttons_q0\[1\]
*1078 buttons_q0\[2\]
*1079 buttons_q0\[3\]
*1080 buttons_q0\[4\]
*1081 clknet_0_clk
*1082 clknet_1_0__leaf_clk
*1083 clknet_1_1__leaf_clk
*1084 clknet_leaf_0_clk
*1085 clknet_leaf_10_clk
*1086 clknet_leaf_11_clk
*1087 clknet_leaf_12_clk
*1088 clknet_leaf_1_clk
*1089 clknet_leaf_2_clk
*1090 clknet_leaf_3_clk
*1091 clknet_leaf_4_clk
*1092 clknet_leaf_5_clk
*1093 clknet_leaf_6_clk
*1094 clknet_leaf_7_clk
*1095 clknet_leaf_8_clk
*1096 clknet_leaf_9_clk
*1097 dc\.ctr\[0\]
*1098 dc\.ctr\[10\]
*1099 dc\.ctr\[11\]
*1100 dc\.ctr\[12\]
*1101 dc\.ctr\[1\]
*1102 dc\.ctr\[2\]
*1103 dc\.ctr\[3\]
*1104 dc\.ctr\[4\]
*1105 dc\.ctr\[5\]
*1106 dc\.ctr\[6\]
*1107 dc\.ctr\[7\]
*1108 dc\.ctr\[8\]
*1109 dc\.ctr\[9\]
*1110 dc\.debounced
*1111 dc\.signal
*1112 dd\.ctr\[0\]
*1113 dd\.ctr\[10\]
*1114 dd\.ctr\[11\]
*1115 dd\.ctr\[12\]
*1116 dd\.ctr\[1\]
*1117 dd\.ctr\[2\]
*1118 dd\.ctr\[3\]
*1119 dd\.ctr\[4\]
*1120 dd\.ctr\[5\]
*1121 dd\.ctr\[6\]
*1122 dd\.ctr\[7\]
*1123 dd\.ctr\[8\]
*1124 dd\.ctr\[9\]
*1125 dd\.debounced
*1126 dd\.signal
*1127 dl\.ctr\[0\]
*1128 dl\.ctr\[10\]
*1129 dl\.ctr\[11\]
*1130 dl\.ctr\[12\]
*1131 dl\.ctr\[1\]
*1132 dl\.ctr\[2\]
*1133 dl\.ctr\[3\]
*1134 dl\.ctr\[4\]
*1135 dl\.ctr\[5\]
*1136 dl\.ctr\[6\]
*1137 dl\.ctr\[7\]
*1138 dl\.ctr\[8\]
*1139 dl\.ctr\[9\]
*1140 dl\.debounced
*1141 dl\.signal
*1142 dr\.ctr\[0\]
*1143 dr\.ctr\[10\]
*1144 dr\.ctr\[11\]
*1145 dr\.ctr\[12\]
*1146 dr\.ctr\[1\]
*1147 dr\.ctr\[2\]
*1148 dr\.ctr\[3\]
*1149 dr\.ctr\[4\]
*1150 dr\.ctr\[5\]
*1151 dr\.ctr\[6\]
*1152 dr\.ctr\[7\]
*1153 dr\.ctr\[8\]
*1154 dr\.ctr\[9\]
*1155 dr\.debounced
*1156 dr\.signal
*1157 dw\.ctr\[0\]
*1158 dw\.ctr\[10\]
*1159 dw\.ctr\[11\]
*1160 dw\.ctr\[12\]
*1161 dw\.ctr\[1\]
*1162 dw\.ctr\[2\]
*1163 dw\.ctr\[3\]
*1164 dw\.ctr\[4\]
*1165 dw\.ctr\[5\]
*1166 dw\.ctr\[6\]
*1167 dw\.ctr\[7\]
*1168 dw\.ctr\[8\]
*1169 dw\.ctr\[9\]
*1170 dw\.debounced
*1171 dw\.signal
*1172 mem_clk
*1173 net1
*1174 net10
*1175 net100
*1176 net101
*1177 net102
*1178 net103
*1179 net104
*1180 net105
*1181 net106
*1182 net107
*1183 net108
*1184 net109
*1185 net11
*1186 net110
*1187 net111
*1188 net112
*1189 net113
*1190 net114
*1191 net115
*1192 net116
*1193 net117
*1194 net118
*1195 net119
*1196 net120
*1197 net121
*1198 net122
*1199 net123
*1200 net124
*1201 net125
*1202 net126
*1203 net127
*1204 net128
*1205 net129
*1206 net130
*1207 net131
*1208 net132
*1209 net133
*1210 net134
*1211 net135
*1212 net136
*1213 net137
*1214 net138
*1215 net139
*1216 net140
*1217 net141
*1218 net142
*1219 net143
*1220 net144
*1221 net145
*1222 net146
*1223 net147
*1224 net148
*1225 net149
*1226 net15
*1227 net150
*1228 net151
*1229 net152
*1230 net153
*1231 net154
*1232 net155
*1233 net156
*1234 net157
*1235 net158
*1236 net16
*1237 net17
*1238 net18
*1239 net19
*1240 net2
*1241 net20
*1242 net21
*1243 net22
*1244 net23
*1245 net24
*1246 net25
*1247 net26
*1248 net27
*1249 net28
*1250 net29
*1251 net3
*1252 net30
*1253 net31
*1254 net32
*1255 net33
*1256 net34
*1257 net35
*1258 net36
*1259 net37
*1260 net38
*1261 net39
*1262 net4
*1263 net40
*1264 net41
*1265 net42
*1266 net43
*1267 net44
*1268 net45
*1269 net46
*1270 net47
*1271 net48
*1272 net49
*1273 net5
*1274 net50
*1275 net51
*1276 net52
*1277 net53
*1278 net54
*1279 net55
*1280 net56
*1281 net57
*1282 net58
*1283 net59
*1284 net6
*1285 net60
*1286 net61
*1287 net62
*1288 net63
*1289 net64
*1290 net65
*1291 net66
*1292 net67
*1293 net68
*1294 net69
*1295 net7
*1296 net70
*1297 net71
*1298 net72
*1299 net73
*1300 net74
*1301 net75
*1302 net76
*1303 net77
*1304 net78
*1305 net79
*1306 net8
*1307 net80
*1308 net81
*1309 net82
*1310 net83
*1311 net84
*1312 net85
*1313 net86
*1314 net87
*1315 net88
*1316 net89
*1317 net9
*1318 net90
*1319 net91
*1320 net92
*1321 net93
*1322 net94
*1323 net95
*1324 net96
*1325 net97
*1326 net98
*1327 net99
*1328 tetris\.b_signal
*1329 tetris\.button_filter\.buffered_buttons\[0\]
*1330 tetris\.button_filter\.buffered_buttons\[1\]
*1331 tetris\.button_filter\.buffered_buttons\[2\]
*1332 tetris\.button_filter\.buffered_buttons\[3\]
*1333 tetris\.button_filter\.buffered_buttons\[4\]
*1334 tetris\.button_filter\.prev_raw_buttons\[0\]
*1335 tetris\.button_filter\.prev_raw_buttons\[1\]
*1336 tetris\.button_filter\.prev_raw_buttons\[2\]
*1337 tetris\.button_filter\.prev_raw_buttons\[3\]
*1338 tetris\.button_filter\.prev_raw_buttons\[4\]
*1339 tetris\.g_signal
*1340 tetris\.game\.collision_checker\.collision_occurred
*1341 tetris\.game\.falling_buffer\.color\[0\]
*1342 tetris\.game\.falling_buffer\.color\[1\]
*1343 tetris\.game\.falling_buffer\.color\[2\]
*1344 tetris\.game\.falling_buffer\.data\[10\]
*1345 tetris\.game\.falling_buffer\.data\[11\]
*1346 tetris\.game\.falling_buffer\.data\[14\]
*1347 tetris\.game\.falling_buffer\.data\[1\]
*1348 tetris\.game\.falling_buffer\.data\[2\]
*1349 tetris\.game\.falling_buffer\.data\[3\]
*1350 tetris\.game\.falling_buffer\.data\[4\]
*1351 tetris\.game\.falling_buffer\.data\[5\]
*1352 tetris\.game\.falling_buffer\.data\[6\]
*1353 tetris\.game\.falling_buffer\.data\[7\]
*1354 tetris\.game\.falling_buffer\.data\[9\]
*1355 tetris\.game\.falling_buffer\.new_tile\[0\]
*1356 tetris\.game\.falling_buffer\.new_tile\[1\]
*1357 tetris\.game\.falling_buffer\.new_tile\[2\]
*1358 tetris\.game\.falling_buffer\.next_load_data\[10\]
*1359 tetris\.game\.falling_buffer\.next_load_data\[11\]
*1360 tetris\.game\.falling_buffer\.next_load_data\[4\]
*1361 tetris\.game\.falling_buffer\.next_load_data\[5\]
*1362 tetris\.game\.falling_buffer\.next_load_data\[6\]
*1363 tetris\.game\.falling_buffer\.next_load_data\[7\]
*1364 tetris\.game\.falling_buffer\.next_load_data\[9\]
*1365 tetris\.game\.falling_col\[0\]
*1366 tetris\.game\.falling_col\[1\]
*1367 tetris\.game\.falling_col\[2\]
*1368 tetris\.game\.falling_col\[3\]
*1369 tetris\.game\.falling_row\[0\]
*1370 tetris\.game\.falling_row\[1\]
*1371 tetris\.game\.falling_row\[2\]
*1372 tetris\.game\.falling_row\[3\]
*1373 tetris\.game\.falling_row\[4\]
*1374 tetris\.game\.frame_parity
*1375 tetris\.game\.full_row_checker\.full_row_index\[0\]
*1376 tetris\.game\.full_row_checker\.full_row_index\[1\]
*1377 tetris\.game\.full_row_checker\.full_row_index\[2\]
*1378 tetris\.game\.full_row_checker\.full_row_index\[3\]
*1379 tetris\.game\.full_row_checker\.full_row_index\[4\]
*1380 tetris\.game\.full_row_checker\.full_row_index\[5\]
*1381 tetris\.game\.full_row_checker\.matrix_has_full_row
*1382 tetris\.game\.full_row_checker\.row_is_full
*1383 tetris\.game\.game_over_text\.horiz\[0\]
*1384 tetris\.game\.game_over_text\.horiz\[1\]
*1385 tetris\.game\.game_over_text\.horiz\[2\]
*1386 tetris\.game\.game_over_text\.horiz\[3\]
*1387 tetris\.game\.game_over_text\.horiz\[4\]
*1388 tetris\.game\.game_over_text\.horiz\[5\]
*1389 tetris\.game\.game_over_text\.horiz\[6\]
*1390 tetris\.game\.game_over_text\.horiz\[7\]
*1391 tetris\.game\.game_over_text\.vert\[0\]
*1392 tetris\.game\.game_over_text\.vert\[1\]
*1393 tetris\.game\.game_over_text\.vert\[2\]
*1394 tetris\.game\.game_over_text\.vert\[3\]
*1395 tetris\.game\.game_over_text\.vert\[4\]
*1396 tetris\.game\.game_over_text\.vert\[5\]
*1397 tetris\.game\.game_over_text\.vert\[6\]
*1398 tetris\.game\.game_over_text\.vert\[7\]
*1399 tetris\.game\.game_over_text\.vert\[8\]
*1400 tetris\.game\.game_over_text\.vert\[9\]
*1401 tetris\.game\.game_state\.state\[0\]
*1402 tetris\.game\.game_state\.state\[1\]
*1403 tetris\.game\.game_state\.state\[2\]
*1404 tetris\.game\.game_state\.state\[4\]
*1405 tetris\.game\.lfsr\.next_state\[1\]
*1406 tetris\.game\.lfsr\.next_state\[2\]
*1407 tetris\.game\.lfsr\.next_state\[3\]
*1408 tetris\.game\.lfsr\.next_state\[4\]
*1409 tetris\.game\.lfsr\.next_state\[5\]
*1410 tetris\.game\.lfsr\.next_state\[6\]
*1411 tetris\.game\.lfsr\.next_state\[7\]
*1412 tetris\.game\.lfsr\.state\[7\]
*1413 tetris\.game\.mem_cont
*1414 tetris\.game\.mem_start
*1415 tetris\.game\.mem_write_enable
*1416 tetris\.game\.movement_buffer\.accelerate_counter\[0\]
*1417 tetris\.game\.movement_buffer\.accelerate_counter\[10\]
*1418 tetris\.game\.movement_buffer\.accelerate_counter\[11\]
*1419 tetris\.game\.movement_buffer\.accelerate_counter\[1\]
*1420 tetris\.game\.movement_buffer\.accelerate_counter\[2\]
*1421 tetris\.game\.movement_buffer\.accelerate_counter\[3\]
*1422 tetris\.game\.movement_buffer\.accelerate_counter\[4\]
*1423 tetris\.game\.movement_buffer\.accelerate_counter\[5\]
*1424 tetris\.game\.movement_buffer\.accelerate_counter\[6\]
*1425 tetris\.game\.movement_buffer\.accelerate_counter\[7\]
*1426 tetris\.game\.movement_buffer\.accelerate_counter\[8\]
*1427 tetris\.game\.movement_buffer\.accelerate_counter\[9\]
*1428 tetris\.game\.movement_buffer\.clear
*1429 tetris\.game\.movement_buffer\.fall_timer\[0\]
*1430 tetris\.game\.movement_buffer\.fall_timer\[1\]
*1431 tetris\.game\.movement_buffer\.fall_timer\[2\]
*1432 tetris\.game\.movement_buffer\.fall_timer\[3\]
*1433 tetris\.game\.movement_buffer\.fall_timer\[4\]
*1434 tetris\.game\.movement_buffer\.fall_timer\[5\]
*1435 tetris\.game\.movement_buffer\.fall_timer\[6\]
*1436 tetris\.game\.movement_buffer\.shift\[0\]
*1437 tetris\.game\.movement_buffer\.shift\[1\]
*1438 tetris\.game\.movement_buffer\.shift\[2\]
*1439 tetris\.game\.movement_buffer\.shift\[3\]
*1440 tetris\.game\.movement_buffer\.shift\[4\]
*1441 tetris\.game\.movement_buffer\.spin_counter\[0\]
*1442 tetris\.game\.movement_buffer\.spin_counter\[1\]
*1443 tetris\.game\.movement_buffer\.total_fall_time\[0\]
*1444 tetris\.game\.movement_buffer\.total_fall_time\[1\]
*1445 tetris\.game\.movement_buffer\.total_fall_time\[2\]
*1446 tetris\.game\.movement_buffer\.total_fall_time\[3\]
*1447 tetris\.game\.movement_buffer\.total_fall_time\[4\]
*1448 tetris\.game\.movement_buffer\.total_fall_time\[5\]
*1449 tetris\.game\.movement_buffer\.total_fall_time\[6\]
*1450 tetris\.game\.pauser\[0\]
*1451 tetris\.game\.pauser\[1\]
*1452 tetris\.game\.pauser\[2\]
*1453 tetris\.game\.pauser\[3\]
*1454 tetris\.game\.raw_matrix_tile\[0\]
*1455 tetris\.game\.raw_matrix_tile\[1\]
*1456 tetris\.game\.raw_matrix_tile\[2\]
*1457 tetris\.game\.row_buffer\.buffer\[1\]\[0\]
*1458 tetris\.game\.row_buffer\.buffer\[1\]\[1\]
*1459 tetris\.game\.row_buffer\.buffer\[1\]\[2\]
*1460 tetris\.game\.row_buffer\.buffer\[2\]\[0\]
*1461 tetris\.game\.row_buffer\.buffer\[2\]\[1\]
*1462 tetris\.game\.row_buffer\.buffer\[2\]\[2\]
*1463 tetris\.game\.row_buffer\.buffer\[3\]\[0\]
*1464 tetris\.game\.row_buffer\.buffer\[3\]\[1\]
*1465 tetris\.game\.row_buffer\.buffer\[3\]\[2\]
*1466 tetris\.game\.row_buffer\.buffer\[4\]\[0\]
*1467 tetris\.game\.row_buffer\.buffer\[4\]\[1\]
*1468 tetris\.game\.row_buffer\.buffer\[4\]\[2\]
*1469 tetris\.game\.row_buffer\.buffer\[5\]\[0\]
*1470 tetris\.game\.row_buffer\.buffer\[5\]\[1\]
*1471 tetris\.game\.row_buffer\.buffer\[5\]\[2\]
*1472 tetris\.game\.row_buffer\.buffer\[6\]\[0\]
*1473 tetris\.game\.row_buffer\.buffer\[6\]\[1\]
*1474 tetris\.game\.row_buffer\.buffer\[6\]\[2\]
*1475 tetris\.game\.row_buffer\.buffer\[7\]\[0\]
*1476 tetris\.game\.row_buffer\.buffer\[7\]\[1\]
*1477 tetris\.game\.row_buffer\.buffer\[7\]\[2\]
*1478 tetris\.game\.row_buffer\.buffer\[8\]\[0\]
*1479 tetris\.game\.row_buffer\.buffer\[8\]\[1\]
*1480 tetris\.game\.row_buffer\.buffer\[8\]\[2\]
*1481 tetris\.game\.row_buffer\.buffer\[9\]\[0\]
*1482 tetris\.game\.row_buffer\.buffer\[9\]\[1\]
*1483 tetris\.game\.row_buffer\.buffer\[9\]\[2\]
*1484 tetris\.hsync
*1485 tetris\.r_signal
*1486 tetris\.vga_generator\.vsync
*1487 writing
*1488 ANTENNA_1
*1489 ANTENNA_2
*1490 ANTENNA_3
*1491 ANTENNA_4
*1492 ANTENNA_5
*1493 ANTENNA_6
*1494 FILLER_0_0_113
*1495 FILLER_0_0_130
*1496 FILLER_0_0_141
*1497 FILLER_0_0_145
*1498 FILLER_0_0_15
*1499 FILLER_0_0_195
*1500 FILLER_0_0_197
*1501 FILLER_0_0_205
*1502 FILLER_0_0_231
*1503 FILLER_0_0_251
*1504 FILLER_0_0_253
*1505 FILLER_0_0_265
*1506 FILLER_0_0_27
*1507 FILLER_0_0_277
*1508 FILLER_0_0_281
*1509 FILLER_0_0_29
*1510 FILLER_0_0_293
*1511 FILLER_0_0_3
*1512 FILLER_0_0_305
*1513 FILLER_0_0_309
*1514 FILLER_0_0_327
*1515 FILLER_0_0_335
*1516 FILLER_0_0_343
*1517 FILLER_0_0_41
*1518 FILLER_0_0_53
*1519 FILLER_0_0_57
*1520 FILLER_0_0_69
*1521 FILLER_0_0_81
*1522 FILLER_0_0_85
*1523 FILLER_0_0_89
*1524 FILLER_0_10_107
*1525 FILLER_0_10_122
*1526 FILLER_0_10_149
*1527 FILLER_0_10_174
*1528 FILLER_0_10_192
*1529 FILLER_0_10_197
*1530 FILLER_0_10_206
*1531 FILLER_0_10_215
*1532 FILLER_0_10_248
*1533 FILLER_0_10_27
*1534 FILLER_0_10_282
*1535 FILLER_0_10_3
*1536 FILLER_0_10_307
*1537 FILLER_0_10_309
*1538 FILLER_0_10_315
*1539 FILLER_0_10_41
*1540 FILLER_0_10_48
*1541 FILLER_0_10_68
*1542 FILLER_0_10_98
*1543 FILLER_0_11_105
*1544 FILLER_0_11_166
*1545 FILLER_0_11_169
*1546 FILLER_0_11_175
*1547 FILLER_0_11_188
*1548 FILLER_0_11_20
*1549 FILLER_0_11_253
*1550 FILLER_0_11_276
*1551 FILLER_0_11_281
*1552 FILLER_0_11_3
*1553 FILLER_0_11_337
*1554 FILLER_0_11_350
*1555 FILLER_0_11_36
*1556 FILLER_0_11_57
*1557 FILLER_0_11_74
*1558 FILLER_0_12_137
*1559 FILLER_0_12_169
*1560 FILLER_0_12_195
*1561 FILLER_0_12_197
*1562 FILLER_0_12_249
*1563 FILLER_0_12_253
*1564 FILLER_0_12_309
*1565 FILLER_0_12_32
*1566 FILLER_0_12_334
*1567 FILLER_0_12_83
*1568 FILLER_0_13_111
*1569 FILLER_0_13_128
*1570 FILLER_0_13_141
*1571 FILLER_0_13_149
*1572 FILLER_0_13_153
*1573 FILLER_0_13_161
*1574 FILLER_0_13_167
*1575 FILLER_0_13_169
*1576 FILLER_0_13_179
*1577 FILLER_0_13_20
*1578 FILLER_0_13_221
*1579 FILLER_0_13_238
*1580 FILLER_0_13_255
*1581 FILLER_0_13_278
*1582 FILLER_0_13_3
*1583 FILLER_0_13_334
*1584 FILLER_0_13_350
*1585 FILLER_0_13_55
*1586 FILLER_0_13_57
*1587 FILLER_0_13_77
*1588 FILLER_0_14_120
*1589 FILLER_0_14_138
*1590 FILLER_0_14_149
*1591 FILLER_0_14_166
*1592 FILLER_0_14_192
*1593 FILLER_0_14_197
*1594 FILLER_0_14_209
*1595 FILLER_0_14_233
*1596 FILLER_0_14_250
*1597 FILLER_0_14_291
*1598 FILLER_0_14_3
*1599 FILLER_0_14_333
*1600 FILLER_0_14_49
*1601 FILLER_0_14_61
*1602 FILLER_0_14_92
*1603 FILLER_0_15_111
*1604 FILLER_0_15_120
*1605 FILLER_0_15_155
*1606 FILLER_0_15_161
*1607 FILLER_0_15_167
*1608 FILLER_0_15_186
*1609 FILLER_0_15_204
*1610 FILLER_0_15_223
*1611 FILLER_0_15_236
*1612 FILLER_0_15_245
*1613 FILLER_0_15_278
*1614 FILLER_0_15_28
*1615 FILLER_0_15_281
*1616 FILLER_0_15_292
*1617 FILLER_0_15_3
*1618 FILLER_0_15_32
*1619 FILLER_0_15_57
*1620 FILLER_0_16_117
*1621 FILLER_0_16_141
*1622 FILLER_0_16_147
*1623 FILLER_0_16_15
*1624 FILLER_0_16_152
*1625 FILLER_0_16_195
*1626 FILLER_0_16_21
*1627 FILLER_0_16_233
*1628 FILLER_0_16_253
*1629 FILLER_0_16_267
*1630 FILLER_0_16_3
*1631 FILLER_0_16_307
*1632 FILLER_0_16_330
*1633 FILLER_0_16_7
*1634 FILLER_0_16_93
*1635 FILLER_0_17_100
*1636 FILLER_0_17_134
*1637 FILLER_0_17_145
*1638 FILLER_0_17_160
*1639 FILLER_0_17_169
*1640 FILLER_0_17_180
*1641 FILLER_0_17_19
*1642 FILLER_0_17_212
*1643 FILLER_0_17_238
*1644 FILLER_0_17_278
*1645 FILLER_0_17_33
*1646 FILLER_0_17_80
*1647 FILLER_0_18_10
*1648 FILLER_0_18_132
*1649 FILLER_0_18_139
*1650 FILLER_0_18_163
*1651 FILLER_0_18_173
*1652 FILLER_0_18_193
*1653 FILLER_0_18_205
*1654 FILLER_0_18_223
*1655 FILLER_0_18_265
*1656 FILLER_0_18_3
*1657 FILLER_0_18_309
*1658 FILLER_0_18_320
*1659 FILLER_0_18_333
*1660 FILLER_0_18_40
*1661 FILLER_0_18_70
*1662 FILLER_0_18_85
*1663 FILLER_0_19_108
*1664 FILLER_0_19_13
*1665 FILLER_0_19_136
*1666 FILLER_0_19_150
*1667 FILLER_0_19_169
*1668 FILLER_0_19_186
*1669 FILLER_0_19_199
*1670 FILLER_0_19_221
*1671 FILLER_0_19_228
*1672 FILLER_0_19_23
*1673 FILLER_0_19_234
*1674 FILLER_0_19_281
*1675 FILLER_0_19_299
*1676 FILLER_0_19_3
*1677 FILLER_0_19_309
*1678 FILLER_0_19_327
*1679 FILLER_0_19_350
*1680 FILLER_0_19_55
*1681 FILLER_0_19_57
*1682 FILLER_0_19_61
*1683 FILLER_0_19_7
*1684 FILLER_0_19_85
*1685 FILLER_0_19_92
*1686 FILLER_0_1_111
*1687 FILLER_0_1_130
*1688 FILLER_0_1_147
*1689 FILLER_0_1_15
*1690 FILLER_0_1_166
*1691 FILLER_0_1_211
*1692 FILLER_0_1_217
*1693 FILLER_0_1_225
*1694 FILLER_0_1_252
*1695 FILLER_0_1_264
*1696 FILLER_0_1_27
*1697 FILLER_0_1_276
*1698 FILLER_0_1_292
*1699 FILLER_0_1_3
*1700 FILLER_0_1_308
*1701 FILLER_0_1_322
*1702 FILLER_0_1_334
*1703 FILLER_0_1_337
*1704 FILLER_0_1_341
*1705 FILLER_0_1_350
*1706 FILLER_0_1_39
*1707 FILLER_0_1_51
*1708 FILLER_0_1_55
*1709 FILLER_0_1_57
*1710 FILLER_0_1_69
*1711 FILLER_0_1_81
*1712 FILLER_0_1_89
*1713 FILLER_0_20_141
*1714 FILLER_0_20_163
*1715 FILLER_0_20_195
*1716 FILLER_0_20_20
*1717 FILLER_0_20_207
*1718 FILLER_0_20_211
*1719 FILLER_0_20_218
*1720 FILLER_0_20_224
*1721 FILLER_0_20_341
*1722 FILLER_0_20_36
*1723 FILLER_0_20_48
*1724 FILLER_0_20_56
*1725 FILLER_0_20_82
*1726 FILLER_0_21_111
*1727 FILLER_0_21_125
*1728 FILLER_0_21_15
*1729 FILLER_0_21_156
*1730 FILLER_0_21_169
*1731 FILLER_0_21_183
*1732 FILLER_0_21_201
*1733 FILLER_0_21_212