*SPEF "ieee 1481-1999"
*DESIGN "tt_um_mattngaw_fp8"
*DATE "11:11:11 Fri 11 11, 1111"
*VENDOR "OpenRCX"
*PROGRAM "Parallel Extraction"
*VERSION "1.0"
*DESIGN_FLOW "NAME_SCOPE LOCAL" "PIN_CAP NONE"
*DIVIDER /
*DELIMITER :
*BUS_DELIMITER []
*T_UNIT 1 NS
*C_UNIT 1 PF
*R_UNIT 1 OHM
*L_UNIT 1 HENRY

*NAME_MAP
*3 clk
*4 ena
*5 rst_n
*6 ui_in[0]
*7 ui_in[1]
*8 ui_in[2]
*9 ui_in[3]
*10 ui_in[4]
*11 ui_in[5]
*12 ui_in[6]
*13 ui_in[7]
*14 uio_in[0]
*15 uio_in[1]
*16 uio_in[2]
*17 uio_in[3]
*18 uio_in[4]
*19 uio_in[5]
*20 uio_in[6]
*21 uio_in[7]
*22 net20
*23 net21
*24 net22
*25 net23
*26 net24
*27 net25
*28 net26
*29 net27
*30 net28
*31 net29
*32 net30
*33 net31
*34 net32
*35 net33
*36 net34
*37 net35
*38 uo_out[0]
*39 uo_out[1]
*40 uo_out[2]
*41 uo_out[3]
*42 uo_out[4]
*43 uo_out[5]
*44 uo_out[6]
*45 uo_out[7]
*46 _000_
*47 _001_
*48 _002_
*49 _003_
*50 _004_
*51 _005_
*52 _006_
*53 _007_
*54 _008_
*55 _009_
*56 _010_
*57 _011_
*58 _012_
*59 _013_
*60 _014_
*61 _015_
*62 _016_
*63 _017_
*64 _018_
*65 _019_
*66 _020_
*67 _021_
*68 _022_
*69 _023_
*70 _024_
*71 _025_
*72 _026_
*73 _027_
*74 _028_
*75 _029_
*76 _030_
*77 _031_
*78 _032_
*79 _033_
*80 _034_
*81 _035_
*82 _036_
*83 _037_
*84 _038_
*85 _039_
*86 _040_
*87 _041_
*88 _042_
*89 _043_
*90 _044_
*91 _045_
*92 _046_
*93 _047_
*94 _048_
*95 _049_
*96 _050_
*97 _051_
*98 _052_
*99 _053_
*100 _054_
*101 _055_
*102 _056_
*103 _057_
*104 _058_
*105 _059_
*106 _060_
*107 _061_
*108 _062_
*109 _063_
*110 _064_
*111 _065_
*112 _066_
*113 _067_
*114 _068_
*115 _069_
*116 _070_
*117 _071_
*118 _072_
*119 _073_
*120 _074_
*121 _075_
*122 _076_
*123 _077_
*124 _078_
*125 _079_
*126 _080_
*127 _081_
*128 _082_
*129 _083_
*130 _084_
*131 _085_
*132 _086_
*133 _087_
*134 _088_
*135 _089_
*136 _090_
*137 _091_
*138 _092_
*139 _093_
*140 _094_
*141 _095_
*142 _096_
*143 _097_
*144 _098_
*145 _099_
*146 _100_
*147 _101_
*148 _102_
*149 _103_
*150 _104_
*151 _105_
*152 _106_
*153 _107_
*154 _108_
*155 _109_
*156 _110_
*157 _111_
*158 _112_
*159 _113_
*160 _114_
*161 _115_
*162 _116_
*163 _117_
*164 _118_
*165 _119_
*166 _120_
*167 _121_
*168 _122_
*169 _123_
*170 _124_
*171 _125_
*172 _126_
*173 _127_
*174 _128_
*175 _129_
*176 _130_
*177 _131_
*178 _132_
*179 _133_
*180 _134_
*181 _135_
*182 _136_
*183 _137_
*184 _138_
*185 _139_
*186 _140_
*187 _141_
*188 _142_
*189 _143_
*190 _144_
*191 _145_
*192 _146_
*193 _147_
*194 _148_
*195 _149_
*196 _150_
*197 _151_
*198 _152_
*199 _153_
*200 _154_
*201 _155_
*202 _156_
*203 _157_
*204 _158_
*205 _159_
*206 _160_
*207 _161_
*208 _162_
*209 _163_
*210 _164_
*211 _165_
*212 _166_
*213 _167_
*214 _168_
*215 _169_
*216 _170_
*217 _171_
*218 _172_
*219 _173_
*220 _174_
*221 _175_
*222 _176_
*223 _177_
*224 _178_
*225 _179_
*226 _180_
*227 _181_
*228 _182_
*229 _183_
*230 _184_
*231 _185_
*232 _186_
*233 adder\.sign_2
*234 net1
*235 net10
*236 net11
*237 net12
*238 net13
*239 net14
*240 net15
*241 net16
*242 net17
*243 net18
*244 net19
*245 net2
*246 net3
*247 net36
*248 net37
*249 net38
*250 net39
*251 net4
*252 net5
*253 net6
*254 net7
*255 net8
*256 net9
*257 FILLER_0_0_109
*258 FILLER_0_0_113
*259 FILLER_0_0_125
*260 FILLER_0_0_137
*261 FILLER_0_0_141
*262 FILLER_0_0_15
*263 FILLER_0_0_153
*264 FILLER_0_0_165
*265 FILLER_0_0_169
*266 FILLER_0_0_181
*267 FILLER_0_0_193
*268 FILLER_0_0_197
*269 FILLER_0_0_209
*270 FILLER_0_0_221
*271 FILLER_0_0_225
*272 FILLER_0_0_237
*273 FILLER_0_0_249
*274 FILLER_0_0_253
*275 FILLER_0_0_265
*276 FILLER_0_0_27
*277 FILLER_0_0_277
*278 FILLER_0_0_281
*279 FILLER_0_0_29
*280 FILLER_0_0_293
*281 FILLER_0_0_3
*282 FILLER_0_0_305
*283 FILLER_0_0_309
*284 FILLER_0_0_321
*285 FILLER_0_0_333
*286 FILLER_0_0_337
*287 FILLER_0_0_349
*288 FILLER_0_0_41
*289 FILLER_0_0_53
*290 FILLER_0_0_57
*291 FILLER_0_0_69
*292 FILLER_0_0_81
*293 FILLER_0_0_85
*294 FILLER_0_0_97
*295 FILLER_0_10_109
*296 FILLER_0_10_121
*297 FILLER_0_10_133
*298 FILLER_0_10_139
*299 FILLER_0_10_141
*300 FILLER_0_10_15
*301 FILLER_0_10_153
*302 FILLER_0_10_165
*303 FILLER_0_10_177
*304 FILLER_0_10_189
*305 FILLER_0_10_195
*306 FILLER_0_10_197
*307 FILLER_0_10_209
*308 FILLER_0_10_221
*309 FILLER_0_10_233
*310 FILLER_0_10_245
*311 FILLER_0_10_251
*312 FILLER_0_10_253
*313 FILLER_0_10_265
*314 FILLER_0_10_27
*315 FILLER_0_10_277
*316 FILLER_0_10_289
*317 FILLER_0_10_29
*318 FILLER_0_10_3
*319 FILLER_0_10_301
*320 FILLER_0_10_307
*321 FILLER_0_10_309
*322 FILLER_0_10_321
*323 FILLER_0_10_333
*324 FILLER_0_10_345
*325 FILLER_0_10_41
*326 FILLER_0_10_53
*327 FILLER_0_10_65
*328 FILLER_0_10_77
*329 FILLER_0_10_83
*330 FILLER_0_10_85
*331 FILLER_0_10_97
*332 FILLER_0_11_105
*333 FILLER_0_11_111
*334 FILLER_0_11_113
*335 FILLER_0_11_125
*336 FILLER_0_11_137
*337 FILLER_0_11_149
*338 FILLER_0_11_15
*339 FILLER_0_11_161
*340 FILLER_0_11_167
*341 FILLER_0_11_169
*342 FILLER_0_11_181
*343 FILLER_0_11_193
*344 FILLER_0_11_205
*345 FILLER_0_11_217
*346 FILLER_0_11_223
*347 FILLER_0_11_225
*348 FILLER_0_11_237
*349 FILLER_0_11_249
*350 FILLER_0_11_261
*351 FILLER_0_11_27
*352 FILLER_0_11_273
*353 FILLER_0_11_279
*354 FILLER_0_11_281
*355 FILLER_0_11_293
*356 FILLER_0_11_3
*357 FILLER_0_11_305
*358 FILLER_0_11_317
*359 FILLER_0_11_329
*360 FILLER_0_11_335
*361 FILLER_0_11_337
*362 FILLER_0_11_349
*363 FILLER_0_11_39
*364 FILLER_0_11_51
*365 FILLER_0_11_55
*366 FILLER_0_11_57
*367 FILLER_0_11_69
*368 FILLER_0_11_81
*369 FILLER_0_11_93
*370 FILLER_0_12_109
*371 FILLER_0_12_121
*372 FILLER_0_12_133
*373 FILLER_0_12_139
*374 FILLER_0_12_141
*375 FILLER_0_12_15
*376 FILLER_0_12_153
*377 FILLER_0_12_165
*378 FILLER_0_12_177
*379 FILLER_0_12_189
*380 FILLER_0_12_195
*381 FILLER_0_12_197
*382 FILLER_0_12_209
*383 FILLER_0_12_221
*384 FILLER_0_12_233
*385 FILLER_0_12_245
*386 FILLER_0_12_251
*387 FILLER_0_12_253
*388 FILLER_0_12_265
*389 FILLER_0_12_27
*390 FILLER_0_12_277
*391 FILLER_0_12_289
*392 FILLER_0_12_29
*393 FILLER_0_12_3
*394 FILLER_0_12_301
*395 FILLER_0_12_307
*396 FILLER_0_12_309
*397 FILLER_0_12_321
*398 FILLER_0_12_333
*399 FILLER_0_12_345
*400 FILLER_0_12_41
*401 FILLER_0_12_53
*402 FILLER_0_12_65
*403 FILLER_0_12_77
*404 FILLER_0_12_83
*405 FILLER_0_12_85
*406 FILLER_0_12_97
*407 FILLER_0_13_105
*408 FILLER_0_13_111
*409 FILLER_0_13_113
*410 FILLER_0_13_125
*411 FILLER_0_13_137
*412 FILLER_0_13_149
*413 FILLER_0_13_15
*414 FILLER_0_13_161
*415 FILLER_0_13_167
*416 FILLER_0_13_169
*417 FILLER_0_13_181
*418 FILLER_0_13_193
*419 FILLER_0_13_205
*420 FILLER_0_13_217
*421 FILLER_0_13_223
*422 FILLER_0_13_225
*423 FILLER_0_13_237
*424 FILLER_0_13_249
*425 FILLER_0_13_261
*426 FILLER_0_13_27
*427 FILLER_0_13_273
*428 FILLER_0_13_279
*429 FILLER_0_13_281
*430 FILLER_0_13_293
*431 FILLER_0_13_3
*432 FILLER_0_13_305
*433 FILLER_0_13_317
*434 FILLER_0_13_329
*435 FILLER_0_13_335
*436 FILLER_0_13_337
*437 FILLER_0_13_349
*438 FILLER_0_13_39
*439 FILLER_0_13_51
*440 FILLER_0_13_55
*441 FILLER_0_13_57
*442 FILLER_0_13_69
*443 FILLER_0_13_81
*444 FILLER_0_13_93
*445 FILLER_0_14_109
*446 FILLER_0_14_121
*447 FILLER_0_14_133
*448 FILLER_0_14_139
*449 FILLER_0_14_141
*450 FILLER_0_14_15
*451 FILLER_0_14_153
*452 FILLER_0_14_165
*453 FILLER_0_14_177
*454 FILLER_0_14_189
*455 FILLER_0_14_195
*456 FILLER_0_14_197
*457 FILLER_0_14_209
*458 FILLER_0_14_221
*459 FILLER_0_14_233
*460 FILLER_0_14_245
*461 FILLER_0_14_251
*462 FILLER_0_14_253
*463 FILLER_0_14_265
*464 FILLER_0_14_27
*465 FILLER_0_14_277
*466 FILLER_0_14_289
*467 FILLER_0_14_29
*468 FILLER_0_14_3
*469 FILLER_0_14_301
*470 FILLER_0_14_307
*471 FILLER_0_14_309
*472 FILLER_0_14_321
*473 FILLER_0_14_333
*474 FILLER_0_14_345
*475 FILLER_0_14_41
*476 FILLER_0_14_53
*477 FILLER_0_14_65
*478 FILLER_0_14_77
*479 FILLER_0_14_83
*480 FILLER_0_14_85
*481 FILLER_0_14_97
*482 FILLER_0_15_105
*483 FILLER_0_15_111
*484 FILLER_0_15_113
*485 FILLER_0_15_125
*486 FILLER_0_15_137
*487 FILLER_0_15_149
*488 FILLER_0_15_15
*489 FILLER_0_15_161
*490 FILLER_0_15_167
*491 FILLER_0_15_169
*492 FILLER_0_15_181
*493 FILLER_0_15_193
*494 FILLER_0_15_205
*495 FILLER_0_15_217
*496 FILLER_0_15_223
*497 FILLER_0_15_225
*498 FILLER_0_15_237
*499 FILLER_0_15_249
*500 FILLER_0_15_261
*501 FILLER_0_15_27
*502 FILLER_0_15_273
*503 FILLER_0_15_279
*504 FILLER_0_15_281
*505 FILLER_0_15_293
*506 FILLER_0_15_3
*507 FILLER_0_15_305
*508 FILLER_0_15_317
*509 FILLER_0_15_329
*510 FILLER_0_15_335
*511 FILLER_0_15_337
*512 FILLER_0_15_349
*513 FILLER_0_15_39
*514 FILLER_0_15_51
*515 FILLER_0_15_55
*516 FILLER_0_15_57
*517 FILLER_0_15_69
*518 FILLER_0_15_81
*519 FILLER_0_15_93
*520 FILLER_0_16_109
*521 FILLER_0_16_121
*522 FILLER_0_16_133
*523 FILLER_0_16_139
*524 FILLER_0_16_141
*525 FILLER_0_16_15
*526 FILLER_0_16_153
*527 FILLER_0_16_165
*528 FILLER_0_16_177
*529 FILLER_0_16_189
*530 FILLER_0_16_195
*531 FILLER_0_16_197
*532 FILLER_0_16_209
*533 FILLER_0_16_221
*534 FILLER_0_16_233
*535 FILLER_0_16_245
*536 FILLER_0_16_251
*537 FILLER_0_16_253
*538 FILLER_0_16_265
*539 FILLER_0_16_27
*540 FILLER_0_16_277
*541 FILLER_0_16_289
*542 FILLER_0_16_29
*543 FILLER_0_16_3
*544 FILLER_0_16_301
*545 FILLER_0_16_307
*546 FILLER_0_16_309
*547 FILLER_0_16_321
*548 FILLER_0_16_333
*549 FILLER_0_16_345
*550 FILLER_0_16_41
*551 FILLER_0_16_53
*552 FILLER_0_16_65
*553 FILLER_0_16_77
*554 FILLER_0_16_83
*555 FILLER_0_16_85
*556 FILLER_0_16_97
*557 FILLER_0_17_105
*558 FILLER_0_17_111
*559 FILLER_0_17_113
*560 FILLER_0_17_125
*561 FILLER_0_17_137
*562 FILLER_0_17_149
*563 FILLER_0_17_15
*564 FILLER_0_17_161
*565 FILLER_0_17_167
*566 FILLER_0_17_169
*567 FILLER_0_17_181
*568 FILLER_0_17_193
*569 FILLER_0_17_205
*570 FILLER_0_17_217
*571 FILLER_0_17_223
*572 FILLER_0_17_225
*573 FILLER_0_17_237
*574 FILLER_0_17_249
*575 FILLER_0_17_261
*576 FILLER_0_17_27
*577 FILLER_0_17_273
*578 FILLER_0_17_279
*579 FILLER_0_17_281
*580 FILLER_0_17_293
*581 FILLER_0_17_3
*582 FILLER_0_17_305
*583 FILLER_0_17_317
*584 FILLER_0_17_329
*585 FILLER_0_17_335
*586 FILLER_0_17_337
*587 FILLER_0_17_349
*588 FILLER_0_17_39
*589 FILLER_0_17_51
*590 FILLER_0_17_55
*591 FILLER_0_17_57
*592 FILLER_0_17_69
*593 FILLER_0_17_81
*594 FILLER_0_17_93
*595 FILLER_0_18_109
*596 FILLER_0_18_121
*597 FILLER_0_18_133
*598 FILLER_0_18_139
*599 FILLER_0_18_141
*600 FILLER_0_18_15
*601 FILLER_0_18_153
*602 FILLER_0_18_165
*603 FILLER_0_18_177
*604 FILLER_0_18_189
*605 FILLER_0_18_195
*606 FILLER_0_18_197
*607 FILLER_0_18_209
*608 FILLER_0_18_221
*609 FILLER_0_18_233
*610 FILLER_0_18_245
*611 FILLER_0_18_251
*612 FILLER_0_18_253
*613 FILLER_0_18_265
*614 FILLER_0_18_27
*615 FILLER_0_18_277
*616 FILLER_0_18_289
*617 FILLER_0_18_29
*618 FILLER_0_18_3
*619 FILLER_0_18_301
*620 FILLER_0_18_307
*621 FILLER_0_18_309
*622 FILLER_0_18_321
*623 FILLER_0_18_333
*624 FILLER_0_18_345
*625 FILLER_0_18_41
*626 FILLER_0_18_53
*627 FILLER_0_18_65
*628 FILLER_0_18_77
*629 FILLER_0_18_83
*630 FILLER_0_18_85
*631 FILLER_0_18_97
*632 FILLER_0_19_105
*633 FILLER_0_19_111
*634 FILLER_0_19_113
*635 FILLER_0_19_125
*636 FILLER_0_19_137
*637 FILLER_0_19_149
*638 FILLER_0_19_15
*639 FILLER_0_19_161
*640 FILLER_0_19_167
*641 FILLER_0_19_169
*642 FILLER_0_19_181
*643 FILLER_0_19_193
*644 FILLER_0_19_205
*645 FILLER_0_19_217
*646 FILLER_0_19_223
*647 FILLER_0_19_225
*648 FILLER_0_19_237
*649 FILLER_0_19_249
*650 FILLER_0_19_261
*651 FILLER_0_19_27
*652 FILLER_0_19_273
*653 FILLER_0_19_279
*654 FILLER_0_19_281
*655 FILLER_0_19_293
*656 FILLER_0_19_3
*657 FILLER_0_19_305
*658 FILLER_0_19_317
*659 FILLER_0_19_329
*660 FILLER_0_19_335
*661 FILLER_0_19_337
*662 FILLER_0_19_349
*663 FILLER_0_19_39
*664 FILLER_0_19_51
*665 FILLER_0_19_55
*666 FILLER_0_19_57
*667 FILLER_0_19_69
*668 FILLER_0_19_81
*669 FILLER_0_19_93
*670 FILLER_0_1_105
*671 FILLER_0_1_111
*672 FILLER_0_1_113
*673 FILLER_0_1_125
*674 FILLER_0_1_137
*675 FILLER_0_1_149
*676 FILLER_0_1_15
*677 FILLER_0_1_161
*678 FILLER_0_1_167
*679 FILLER_0_1_169
*680 FILLER_0_1_181
*681 FILLER_0_1_193
*682 FILLER_0_1_205
*683 FILLER_0_1_217
*684 FILLER_0_1_223
*685 FILLER_0_1_225
*686 FILLER_0_1_237
*687 FILLER_0_1_249
*688 FILLER_0_1_261
*689 FILLER_0_1_27
*690 FILLER_0_1_273
*691 FILLER_0_1_279
*692 FILLER_0_1_281
*693 FILLER_0_1_293
*694 FILLER_0_1_3
*695 FILLER_0_1_305
*696 FILLER_0_1_317
*697 FILLER_0_1_329
*698 FILLER_0_1_335
*699 FILLER_0_1_337
*700 FILLER_0_1_349
*701 FILLER_0_1_39
*702 FILLER_0_1_51
*703 FILLER_0_1_55
*704 FILLER_0_1_57
*705 FILLER_0_1_69
*706 FILLER_0_1_81
*707 FILLER_0_1_93
*708 FILLER_0_20_109
*709 FILLER_0_20_121
*710 FILLER_0_20_133
*711 FILLER_0_20_139
*712 FILLER_0_20_141
*713 FILLER_0_20_15
*714 FILLER_0_20_153
*715 FILLER_0_20_165
*716 FILLER_0_20_177
*717 FILLER_0_20_189
*718 FILLER_0_20_195
*719 FILLER_0_20_197
*720 FILLER_0_20_209
*721 FILLER_0_20_221
*722 FILLER_0_20_233
*723 FILLER_0_20_245
*724 FILLER_0_20_251
*725 FILLER_0_20_253
*726 FILLER_0_20_265
*727 FILLER_0_20_27
*728 FILLER_0_20_277
*729 FILLER_0_20_289
*730 FILLER_0_20_29
*731 FILLER_0_20_3
*732 FILLER_0_20_301
*733 FILLER_0_20_307
*734 FILLER_0_20_309
*735 FILLER_0_20_321
*736 FILLER_0_20_333
*737 FILLER_0_20_345
*738 FILLER_0_20_41
*739 FILLER_0_20_53
*740 FILLER_0_20_65
*741 FILLER_0_20_77
*742 FILLER_0_20_83
*743 FILLER_0_20_85
*744 FILLER_0_20_97
*745 FILLER_0_21_105
*746 FILLER_0_21_111
*747 FILLER_0_21_113
*748 FILLER_0_21_125
*749 FILLER_0_21_137
*750 FILLER_0_21_149
*751 FILLER_0_21_15
*752 FILLER_0_21_161
*753 FILLER_0_21_167
*754 FILLER_0_21_169
*755 FILLER_0_21_181
*756 FILLER_0_21_193
*757 FILLER_0_21_205
*758 FILLER_0_21_217
*759 FILLER_0_21_223
*760 FILLER_0_21_225
*761 FILLER_0_21_237
*762 FILLER_0_21_249
*763 FILLER_0_21_261
*764 FILLER_0_21_27
*765 FILLER_0_21_273
*766 FILLER_0_21_279
*767 FILLER_0_21_281
*768 FILLER_0_21_293
*769 FILLER_0_21_3
*770 FILLER_0_21_305
*771 FILLER_0_21_317
*772 FILLER_0_21_329
*773 FILLER_0_21_335
*774 FILLER_0_21_337
*775 FILLER_0_21_349
*776 FILLER_0_21_39
*777 FILLER_0_21_51
*778 FILLER_0_21_55
*779 FILLER_0_21_57
*780 FILLER_0_21_69
*781 FILLER_0_21_81
*782 FILLER_0_21_93
*783 FILLER_0_22_109
*784 FILLER_0_22_121
*785 FILLER_0_22_133
*786 FILLER_0_22_139
*787 FILLER_0_22_141
*788 FILLER_0_22_15
*789 FILLER_0_22_153
*790 FILLER_0_22_165
*791 FILLER_0_22_177
*792 FILLER_0_22_189
*793 FILLER_0_22_195
*794 FILLER_0_22_197
*795 FILLER_0_22_209
*796 FILLER_0_22_221
*797 FILLER_0_22_233
*798 FILLER_0_22_245
*799 FILLER_0_22_251
*800 FILLER_0_22_253
*801 FILLER_0_22_265
*802 FILLER_0_22_27
*803 FILLER_0_22_277
*804 FILLER_0_22_289
*805 FILLER_0_22_29
*806 FILLER_0_22_3
*807 FILLER_0_22_301
*808 FILLER_0_22_307
*809 FILLER_0_22_309
*810 FILLER_0_22_321
*811 FILLER_0_22_333
*812 FILLER_0_22_345
*813 FILLER_0_22_41
*814 FILLER_0_22_53
*815 FILLER_0_22_65
*816 FILLER_0_22_77
*817 FILLER_0_22_83
*818 FILLER_0_22_85
*819 FILLER_0_22_97
*820 FILLER_0_23_105
*821 FILLER_0_23_111
*822 FILLER_0_23_113
*823 FILLER_0_23_125
*824 FILLER_0_23_137
*825 FILLER_0_23_149
*826 FILLER_0_23_15
*827 FILLER_0_23_161
*828 FILLER_0_23_167
*829 FILLER_0_23_169
*830 FILLER_0_23_181
*831 FILLER_0_23_193
*832 FILLER_0_23_205
*833 FILLER_0_23_217
*834 FILLER_0_23_223
*835 FILLER_0_23_225
*836 FILLER_0_23_237
*837 FILLER_0_23_249
*838 FILLER_0_23_261
*839 FILLER_0_23_27
*840 FILLER_0_23_273
*841 FILLER_0_23_279
*842 FILLER_0_23_281
*843 FILLER_0_23_293
*844 FILLER_0_23_3
*845 FILLER_0_23_305
*846 FILLER_0_23_317
*847 FILLER_0_23_329
*848 FILLER_0_23_335
*849 FILLER_0_23_337
*850 FILLER_0_23_349
*851 FILLER_0_23_39
*852 FILLER_0_23_51
*853 FILLER_0_23_55
*854 FILLER_0_23_57
*855 FILLER_0_23_69
*856 FILLER_0_23_81
*857 FILLER_0_23_93
*858 FILLER_0_24_109
*859 FILLER_0_24_121
*860 FILLER_0_24_133
*861 FILLER_0_24_139
*862 FILLER_0_24_141
*863 FILLER_0_24_15
*864 FILLER_0_24_153
*865 FILLER_0_24_165
*866 FILLER_0_24_177
*867 FILLER_0_24_189
*868 FILLER_0_24_195
*869 FILLER_0_24_197
*870 FILLER_0_24_209
*871 FILLER_0_24_221
*872 FILLER_0_24_233
*873 FILLER_0_24_245
*874 FILLER_0_24_251
*875 FILLER_0_24_253
*876 FILLER_0_24_265
*877 FILLER_0_24_27
*878 FILLER_0_24_277
*879 FILLER_0_24_289
*880 FILLER_0_24_29
*881 FILLER_0_24_3
*882 FILLER_0_24_301
*883 FILLER_0_24_307
*884 FILLER_0_24_309
*885 FILLER_0_24_321
*886 FILLER_0_24_333
*887 FILLER_0_24_345
*888 FILLER_0_24_41
*889 FILLER_0_24_53
*890 FILLER_0_24_65
*891 FILLER_0_24_77
*892 FILLER_0_24_83
*893 FILLER_0_24_85
*894 FILLER_0_24_97
*895 FILLER_0_25_105
*896 FILLER_0_25_111
*897 FILLER_0_25_113
*898 FILLER_0_25_125
*899 FILLER_0_25_137
*900 FILLER_0_25_149
*901 FILLER_0_25_15
*902 FILLER_0_25_161
*903 FILLER_0_25_167
*904 FILLER_0_25_169
*905 FILLER_0_25_181
*906 FILLER_0_25_193
*907 FILLER_0_25_205
*908 FILLER_0_25_217
*909 FILLER_0_25_223
*910 FILLER_0_25_225
*911 FILLER_0_25_237
*912 FILLER_0_25_249
*913 FILLER_0_25_261
*914 FILLER_0_25_27
*915 FILLER_0_25_273
*916 FILLER_0_25_279
*917 FILLER_0_25_281
*918 FILLER_0_25_293
*919 FILLER_0_25_3
*920 FILLER_0_25_305
*921 FILLER_0_25_317
*922 FILLER_0_25_329
*923 FILLER_0_25_335
*924 FILLER_0_25_337
*925 FILLER_0_25_349
*926 FILLER_0_25_39
*927 FILLER_0_25_51
*928 FILLER_0_25_55
*929 FILLER_0_25_57
*930 FILLER_0_25_69
*931 FILLER_0_25_81
*932 FILLER_0_25_93
*933 FILLER_0_26_109
*934 FILLER_0_26_121
*935 FILLER_0_26_133
*936 FILLER_0_26_139
*937 FILLER_0_26_141
*938 FILLER_0_26_15
*939 FILLER_0_26_153
*940 FILLER_0_26_165
*941 FILLER_0_26_195
*942 FILLER_0_26_210
*943 FILLER_0_26_214
*944 FILLER_0_26_227
*945 FILLER_0_26_239
*946 FILLER_0_26_251
*947 FILLER_0_26_27
*948 FILLER_0_26_275
*949 FILLER_0_26_287
*950 FILLER_0_26_29
*951 FILLER_0_26_295
*952 FILLER_0_26_3
*953 FILLER_0_26_307
*954 FILLER_0_26_309
*955 FILLER_0_26_321
*956 FILLER_0_26_333
*957 FILLER_0_26_345
*958 FILLER_0_26_41
*959 FILLER_0_26_53
*960 FILLER_0_26_65
*961 FILLER_0_26_77
*962 FILLER_0_26_83
*963 FILLER_0_26_85
*964 FILLER_0_26_97
*965 FILLER_0_27_105
*966 FILLER_0_27_111
*967 FILLER_0_27_113
*968 FILLER_0_27_125
*969 FILLER_0_27_137
*970 FILLER_0_27_149
*971 FILLER_0_27_15
*972 FILLER_0_27_169
*973 FILLER_0_27_173
*974 FILLER_0_27_177
*975 FILLER_0_27_183
*976 FILLER_0_27_206
*977 FILLER_0_27_210
*978 FILLER_0_27_225
*979 FILLER_0_27_256
*980 FILLER_0_27_27
*981 FILLER_0_27_3
*982 FILLER_0_27_312
*983 FILLER_0_27_324
*984 FILLER_0_27_337
*985 FILLER_0_27_349
*986 FILLER_0_27_39
*987 FILLER_0_27_51
*988 FILLER_0_27_55
*989 FILLER_0_27_57
*990 FILLER_0_27_69
*991 FILLER_0_27_81
*992 FILLER_0_27_93
*993 FILLER_0_28_109
*994 FILLER_0_28_121
*995 FILLER_0_28_133
*996 FILLER_0_28_139
*997 FILLER_0_28_141
*998 FILLER_0_28_15
*999 FILLER_0_28_175
*1000 FILLER_0_28_183
*1001 FILLER_0_28_200
*1002 FILLER_0_28_204
*1003 FILLER_0_28_212
*1004 FILLER_0_28_221
*1005 FILLER_0_28_233
*1006 FILLER_0_28_245
*1007 FILLER_0_28_251
*1008 FILLER_0_28_253
*1009 FILLER_0_28_266
*1010 FILLER_0_28_27
*1011 FILLER_0_28_283
*1012 FILLER_0_28_289
*1013 FILLER_0_28_29
*1014 FILLER_0_28_295
*1015 FILLER_0_28_3
*1016 FILLER_0_28_302
*1017 FILLER_0_28_309
*1018 FILLER_0_28_313
*1019 FILLER_0_28_318
*1020 FILLER_0_28_329
*1021 FILLER_0_28_341
*1022 FILLER_0_28_349
*1023 FILLER_0_28_41
*1024 FILLER_0_28_53
*1025 FILLER_0_28_65
*1026 FILLER_0_28_77
*1027 FILLER_0_28_83
*1028 FILLER_0_28_85
*1029 FILLER_0_28_97
*1030 FILLER_0_29_105
*1031 FILLER_0_29_111
*1032 FILLER_0_29_113
*1033 FILLER_0_29_125
*1034 FILLER_0_29_137
*1035 FILLER_0_29_149
*1036 FILLER_0_29_15
*1037 FILLER_0_29_157
*1038 FILLER_0_29_163
*1039 FILLER_0_29_172
*1040 FILLER_0_29_176
*1041 FILLER_0_29_189
*1042 FILLER_0_29_195
*1043 FILLER_0_29_249
*1044 FILLER_0_29_262
*1045 FILLER_0_29_266
*1046 FILLER_0_29_27
*1047 FILLER_0_29_276
*1048 FILLER_0_29_290
*1049 FILLER_0_29_3
*1050 FILLER_0_29_309
*1051 FILLER_0_29_319
*1052 FILLER_0_29_334
*1053 FILLER_0_29_337
*1054 FILLER_0_29_349
*1055 FILLER_0_29_39
*1056 FILLER_0_29_51
*1057 FILLER_0_29_55
*1058 FILLER_0_29_57
*1059 FILLER_0_29_69
*1060 FILLER_0_29_81
*1061 FILLER_0_29_93
*1062 FILLER_0_2_109
*1063 FILLER_0_2_121
*1064 FILLER_0_2_133
*1065 FILLER_0_2_139
*1066 FILLER_0_2_141
*1067 FILLER_0_2_15
*1068 FILLER_0_2_153
*1069 FILLER_0_2_165
*1070 FILLER_0_2_177
*1071 FILLER_0_2_189
*1072 FILLER_0_2_195
*1073 FILLER_0_2_197
*1074 FILLER_0_2_209
*1075 FILLER_0_2_221
*1076 FILLER_0_2_233
*1077 FILLER_0_2_245
*1078 FILLER_0_2_251
*1079 FILLER_0_2_253
*1080 FILLER_0_2_265
*1081 FILLER_0_2_27
*1082 FILLER_0_2_277
*1083 FILLER_0_2_289
*1084 FILLER_0_2_29
*1085 FILLER_0_2_3
*1086 FILLER_0_2_301
*1087 FILLER_0_2_307
*1088 FILLER_0_2_309
*1089 FILLER_0_2_321
*1090 FILLER_0_2_333
*1091 FILLER_0_2_345
*1092 FILLER_0_2_41
*1093 FILLER_0_2_53
*1094 FILLER_0_2_65
*1095 FILLER_0_2_77
*1096 FILLER_0_2_83
*1097 FILLER_0_2_85
*1098 FILLER_0_2_97
*1099 FILLER_0_30_109
*1100 FILLER_0_30_121
*1101 FILLER_0_30_133
*1102 FILLER_0_30_139
*1103 FILLER_0_30_141
*1104 FILLER_0_30_15
*1105 FILLER_0_30_152
*1106 FILLER_0_30_158
*1107 FILLER_0_30_183
*1108 FILLER_0_30_192
*1109 FILLER_0_30_200
*1110 FILLER_0_30_212
*1111 FILLER_0_30_224
*1112 FILLER_0_30_228
*1113 FILLER_0_30_233
*1114 FILLER_0_30_245
*1115 FILLER_0_30_251
*1116 FILLER_0_30_257
*1117 FILLER_0_30_263
*1118 FILLER_0_30_27
*1119 FILLER_0_30_29
*1120 FILLER_0_30_291
*1121 FILLER_0_30_299
*1122 FILLER_0_30_3
*1123 FILLER_0_30_306
*1124 FILLER_0_30_314
*1125 FILLER_0_30_326
*1126 FILLER_0_30_41
*1127 FILLER_0_30_53
*1128 FILLER_0_30_65
*1129 FILLER_0_30_77
*1130 FILLER_0_30_83
*1131 FILLER_0_30_85
*1132 FILLER_0_30_97
*1133 FILLER_0_31_105
*1134 FILLER_0_31_111
*1135 FILLER_0_31_113
*1136 FILLER_0_31_125
*1137 FILLER_0_31_137
*1138 FILLER_0_31_149
*1139 FILLER_0_31_15
*1140 FILLER_0_31_167
*1141 FILLER_0_31_172
*1142 FILLER_0_31_186
*1143 FILLER_0_31_198
*1144 FILLER_0_31_204
*1145 FILLER_0_31_215
*1146 FILLER_0_31_223
*1147 FILLER_0_31_239
*1148 FILLER_0_31_243
*1149 FILLER_0_31_254
*1150 FILLER_0_31_266
*1151 FILLER_0_31_27
*1152 FILLER_0_31_276
*1153 FILLER_0_31_281
*1154 FILLER_0_31_293
*1155 FILLER_0_31_3
*1156 FILLER_0_31_300
*1157 FILLER_0_31_304
*1158 FILLER_0_31_310
*1159 FILLER_0_31_322
*1160 FILLER_0_31_333
*1161 FILLER_0_31_337
*1162 FILLER_0_31_349
*1163 FILLER_0_31_39
*1164 FILLER_0_31_51
*1165 FILLER_0_31_55
*1166 FILLER_0_31_57
*1167 FILLER_0_31_69
*1168 FILLER_0_31_81
*1169 FILLER_0_31_93
*1170 FILLER_0_32_109
*1171 FILLER_0_32_121
*1172 FILLER_0_32_133
*1173 FILLER_0_32_139
*1174 FILLER_0_32_141
*1175 FILLER_0_32_149
*1176 FILLER_0_32_15
*1177 FILLER_0_32_167
*1178 FILLER_0_32_193
*1179 FILLER_0_32_213
*1180 FILLER_0_32_225
*1181 FILLER_0_32_233
*1182 FILLER_0_32_250
*1183 FILLER_0_32_267
*1184 FILLER_0_32_27
*1185 FILLER_0_32_271
*1186 FILLER_0_32_278
*1187 FILLER_0_32_288
*1188 FILLER_0_32_29
*1189 FILLER_0_32_292
*1190 FILLER_0_32_298
*1191 FILLER_0_32_3
*1192 FILLER_0_32_306
*1193 FILLER_0_32_320
*1194 FILLER_0_32_41
*1195 FILLER_0_32_53
*1196 FILLER_0_32_65
*1197 FILLER_0_32_77
*1198 FILLER_0_32_83
*1199 FILLER_0_32_85
*1200 FILLER_0_32_97
*1201 FILLER_0_33_105
*1202 FILLER_0_33_111
*1203 FILLER_0_33_113
*1204 FILLER_0_33_125
*1205 FILLER_0_33_137
*1206 FILLER_0_33_141
*1207 FILLER_0_33_15
*1208 FILLER_0_33_154
*1209 FILLER_0_33_166
*1210 FILLER_0_33_169
*1211 FILLER_0_33_177
*1212 FILLER_0_33_185
*1213 FILLER_0_33_206
*1214 FILLER_0_33_218
*1215 FILLER_0_33_225
*1216 FILLER_0_33_248
*1217 FILLER_0_33_265
*1218 FILLER_0_33_27
*1219 FILLER_0_33_281
*1220 FILLER_0_33_293
*1221 FILLER_0_33_299
*1222 FILLER_0_33_3
*1223 FILLER_0_33_309
*1224 FILLER_0_33_315
*1225 FILLER_0_33_335
*1226 FILLER_0_33_341
*1227 FILLER_0_33_349
*1228 FILLER_0_33_39
*1229 FILLER_0_33_51
*1230 FILLER_0_33_55
*1231 FILLER_0_33_57
*1232 FILLER_0_33_69
*1233 FILLER_0_33_81
*1234 FILLER_0_33_93
*1235 FILLER_0_34_109
*1236 FILLER_0_34_121
*1237 FILLER_0_34_132
*1238 FILLER_0_34_141
*1239 FILLER_0_34_15
*1240 FILLER_0_34_156
*1241 FILLER_0_34_168
*1242 FILLER_0_34_180
*1243 FILLER_0_34_191
*1244 FILLER_0_34_195
*1245 FILLER_0_34_197
*1246 FILLER_0_34_235
*1247 FILLER_0_34_249
*1248 FILLER_0_34_253
*1249 FILLER_0_34_27
*1250 FILLER_0_34_29
*1251 FILLER_0_34_3
*1252 FILLER_0_34_305
*1253 FILLER_0_34_318
*1254 FILLER_0_34_41
*1255 FILLER_0_34_53
*1256 FILLER_0_34_65
*1257 FILLER_0_34_77
*1258 FILLER_0_34_83
*1259 FILLER_0_34_85
*1260 FILLER_0_34_97
*1261 FILLER_0_35_105
*1262 FILLER_0_35_111
*1263 FILLER_0_35_113
*1264 FILLER_0_35_121
*1265 FILLER_0_35_143
*1266 FILLER_0_35_15
*1267 FILLER_0_35_165
*1268 FILLER_0_35_181
*1269 FILLER_0_35_189
*1270 FILLER_0_35_212
*1271 FILLER_0_35_225
*1272 FILLER_0_35_248
*1273 FILLER_0_35_254
*1274 FILLER_0_35_260
*1275 FILLER_0_35_27
*1276 FILLER_0_35_272
*1277 FILLER_0_35_281
*1278 FILLER_0_35_285
*1279 FILLER_0_35_291
*1280 FILLER_0_35_297
*1281 FILLER_0_35_3
*1282 FILLER_0_35_314
*1283 FILLER_0_35_330
*1284 FILLER_0_35_337
*1285 FILLER_0_35_349
*1286 FILLER_0_35_39
*1287 FILLER_0_35_51
*1288 FILLER_0_35_55
*1289 FILLER_0_35_57
*1290 FILLER_0_35_69
*1291 FILLER_0_35_81
*1292 FILLER_0_35_93
*1293 FILLER_0_36_109
*1294 FILLER_0_36_121
*1295 FILLER_0_36_125
*1296 FILLER_0_36_131
*1297 FILLER_0_36_139
*1298 FILLER_0_36_141
*1299 FILLER_0_36_15
*1300 FILLER_0_36_153
*1301 FILLER_0_36_165
*1302 FILLER_0_36_177
*1303 FILLER_0_36_189
*1304 FILLER_0_36_195
*1305 FILLER_0_36_197
*1306 FILLER_0_36_205
*1307 FILLER_0_36_214
*1308 FILLER_0_36_218
*1309 FILLER_0_36_237
*1310 FILLER_0_36_258
*1311 FILLER_0_36_27
*1312 FILLER_0_36_275
*1313 FILLER_0_36_29
*1314 FILLER_0_36_295
*1315 FILLER_0_36_3
*1316 FILLER_0_36_307
*1317 FILLER_0_36_309
*1318 FILLER_0_36_317
*1319 FILLER_0_36_326
*1320 FILLER_0_36_334
*1321 FILLER_0_36_348
*1322 FILLER_0_36_41
*1323 FILLER_0_36_53
*1324 FILLER_0_36_65
*1325 FILLER_0_36_77
*1326 FILLER_0_36_83
*1327 FILLER_0_36_85
*1328 FILLER_0_36_97
*1329 FILLER_0_37_105
*1330 FILLER_0_37_111
*1331 FILLER_0_37_113
*1332 FILLER_0_37_125
*1333 FILLER_0_37_131
*1334 FILLER_0_37_139
*1335 FILLER_0_37_145
*1336 FILLER_0_37_15
*1337 FILLER_0_37_194
*1338 FILLER_0_37_214
*1339 FILLER_0_37_220
*1340 FILLER_0_37_225
*1341 FILLER_0_37_249
*1342 FILLER_0_37_254
*1343 FILLER_0_37_261
*1344 FILLER_0_37_269
*1345 FILLER_0_37_27
*1346 FILLER_0_37_297
*1347 FILLER_0_37_3
*1348 FILLER_0_37_313
*1349 FILLER_0_37_321
*1350 FILLER_0_37_328
*1351 FILLER_0_37_337
*1352 FILLER_0_37_349
*1353 FILLER_0_37_39
*1354 FILLER_0_37_51
*1355 FILLER_0_37_55
*1356 FILLER_0_37_57
*1357 FILLER_0_37_69
*1358 FILLER_0_37_81
*1359 FILLER_0_37_93
*1360 FILLER_0_38_104
*1361 FILLER_0_38_110
*1362 FILLER_0_38_116
*1363 FILLER_0_38_122
*1364 FILLER_0_38_128
*1365 FILLER_0_38_134
*1366 FILLER_0_38_141
*1367 FILLER_0_38_146
*1368 FILLER_0_38_15
*1369 FILLER_0_38_164
*1370 FILLER_0_38_191
*1371 FILLER_0_38_209
*1372 FILLER_0_38_27
*1373 FILLER_0_38_272
*1374 FILLER_0_38_29
*1375 FILLER_0_38_3
*1376 FILLER_0_38_306
*1377 FILLER_0_38_332
*1378 FILLER_0_38_337
*1379 FILLER_0_38_349
*1380 FILLER_0_38_41
*1381 FILLER_0_38_53
*1382 FILLER_0_38_57
*1383 FILLER_0_38_68
*1384 FILLER_0_38_74
*1385 FILLER_0_38_80
*1386 FILLER_0_38_88
*1387 FILLER_0_38_92
*1388 FILLER_0_38_98
*1389 FILLER_0_3_105
*1390 FILLER_0_3_111
*1391 FILLER_0_3_113
*1392 FILLER_0_3_125
*1393 FILLER_0_3_137
*1394 FILLER_0_3_149
*1395 FILLER_0_3_15
*1396 FILLER_0_3_161
*1397 FILLER_0_3_167
*1398 FILLER_0_3_169
*1399 FILLER_0_3_181
*1400 FILLER_0_3_193
*1401 FILLER_0_3_205
*1402 FILLER_0_3_217
*1403 FILLER_0_3_223
*1404 FILLER_0_3_225
*1405 FILLER_0_3_237
*1406 FILLER_0_3_249
*1407 FILLER_0_3_261
*1408 FILLER_0_3_27
*1409 FILLER_0_3_273
*1410 FILLER_0_3_279
*1411 FILLER_0_3_281
*1412 FILLER_0_3_293
*1413 FILLER_0_3_3
*1414 FILLER_0_3_305
*1415 FILLER_0_3_317
*1416 FILLER_0_3_329
*1417 FILLER_0_3_335
*1418 FILLER_0_3_337
*1419 FILLER_0_3_349
*1420 FILLER_0_3_39
*1421 FILLER_0_3_51
*1422 FILLER_0_3_55
*1423 FILLER_0_3_57
*1424 FILLER_0_3_69
*1425 FILLER_0_3_81
*1426 FILLER_0_3_93
*1427 FILLER_0_4_109
*1428 FILLER_0_4_121
*1429 FILLER_0_4_133
*1430 FILLER_0_4_139
*1431 FILLER_0_4_141
*1432 FILLER_0_4_15
*1433 FILLER_0_4_153
*1434 FILLER_0_4_165
*1435 FILLER_0_4_177
*1436 FILLER_0_4_189
*1437 FILLER_0_4_195
*1438 FILLER_0_4_197
*1439 FILLER_0_4_209
*1440 FILLER_0_4_221
*1441 FILLER_0_4_233
*1442 FILLER_0_4_245
*1443 FILLER_0_4_251
*1444 FILLER_0_4_253
*1445 FILLER_0_4_265
*1446 FILLER_0_4_27
*1447 FILLER_0_4_277
*1448 FILLER_0_4_289
*1449 FILLER_0_4_29
*1450 FILLER_0_4_3
*1451 FILLER_0_4_301
*1452 FILLER_0_4_307
*1453 FILLER_0_4_309
*1454 FILLER_0_4_321
*1455 FILLER_0_4_333
*1456 FILLER_0_4_345
*1457 FILLER_0_4_41
*1458 FILLER_0_4_53
*1459 FILLER_0_4_65
*1460 FILLER_0_4_77
*1461 FILLER_0_4_83
*1462 FILLER_0_4_85
*1463 FILLER_0_4_97
*1464 FILLER_0_5_105
*1465 FILLER_0_5_111
*1466 FILLER_0_5_113
*1467 FILLER_0_5_125
*1468 FILLER_0_5_137
*1469 FILLER_0_5_149
*1470 FILLER_0_5_15
*1471 FILLER_0_5_161
*1472 FILLER_0_5_167
*1473 FILLER_0_5_169
*1474 FILLER_0_5_181
*1475 FILLER_0_5_193
*1476 FILLER_0_5_205
*1477 FILLER_0_5_217
*1478 FILLER_0_5_223
*1479 FILLER_0_5_225
*1480 FILLER_0_5_237
*1481 FILLER_0_5_249
*1482 FILLER_0_5_261
*1483 FILLER_0_5_27
*1484 FILLER_0_5_273
*1485 FILLER_0_5_279
*1486 FILLER_0_5_281
*1487 FILLER_0_5_293
*1488 FILLER_0_5_3
*1489 FILLER_0_5_305
*1490 FILLER_0_5_317
*1491 FILLER_0_5_329
*1492 FILLER_0_5_335
*1493 FILLER_0_5_337
*1494 FILLER_0_5_349
*1495 FILLER_0_5_39
*1496 FILLER_0_5_51
*1497 FILLER_0_5_55
*1498 FILLER_0_5_57
*1499 FILLER_0_5_69
*1500 FILLER_0_5_81
*1501 FILLER_0_5_93
*1502 FILLER_0_6_109
*1503 FILLER_0_6_121
*1504 FILLER_0_6_133
*1505 FILLER_0_6_139
*1506 FILLER_0_6_141
*1507 FILLER_0_6_15
*1508 FILLER_0_6_153
*1509 FILLER_0_6_165
*1510 FILLER_0_6_177
*1511 FILLER_0_6_189
*1512 FILLER_0_6_195
*1513 FILLER_0_6_197
*1514 FILLER_0_6_209
*1515 FILLER_0_6_221
*1516 FILLER_0_6_233
*1517 FILLER_0_6_245
*1518 FILLER_0_6_251
*1519 FILLER_0_6_253
*1520 FILLER_0_6_265
*1521 FILLER_0_6_27
*1522 FILLER_0_6_277
*1523 FILLER_0_6_289
*1524 FILLER_0_6_29
*1525 FILLER_0_6_3
*1526 FILLER_0_6_301
*1527 FILLER_0_6_307
*1528 FILLER_0_6_309
*1529 FILLER_0_6_321
*1530 FILLER_0_6_333
*1531 FILLER_0_6_345
*1532 FILLER_0_6_41
*1533 FILLER_0_6_53
*1534 FILLER_0_6_65
*1535 FILLER_0_6_77
*1536 FILLER_0_6_83
*1537 FILLER_0_6_85
*1538 FILLER_0_6_97
*1539 FILLER_0_7_105
*1540 FILLER_0_7_111
*1541 FILLER_0_7_113
*1542 FILLER_0_7_125
*1543 FILLER_0_7_137
*1544 FILLER_0_7_149