*SPEF "ieee 1481-1999"
*DESIGN "tt_um_devinatkin_stopwatch"
*DATE "11:11:11 Fri 11 11, 1111"
*VENDOR "OpenRCX"
*PROGRAM "Parallel Extraction"
*VERSION "1.0"
*DESIGN_FLOW "NAME_SCOPE LOCAL" "PIN_CAP NONE"
*DIVIDER /
*DELIMITER :
*BUS_DELIMITER []
*T_UNIT 1 NS
*C_UNIT 1 PF
*R_UNIT 1 OHM
*L_UNIT 1 HENRY

*NAME_MAP
*3 clk
*4 ena
*5 rst_n
*6 ui_in[0]
*7 ui_in[1]
*8 ui_in[2]
*9 ui_in[3]
*10 ui_in[4]
*11 ui_in[5]
*12 ui_in[6]
*13 ui_in[7]
*14 uio_in[0]
*15 uio_in[1]
*16 uio_in[2]
*17 uio_in[3]
*18 uio_in[4]
*19 uio_in[5]
*20 uio_in[6]
*21 uio_in[7]
*22 net13
*23 net14
*24 net15
*25 net16
*26 net17
*27 net18
*28 net19
*29 net20
*30 uio_out[0]
*31 uio_out[1]
*32 uio_out[2]
*33 uio_out[3]
*34 net21
*35 net22
*36 net23
*37 net24
*38 uo_out[0]
*39 uo_out[1]
*40 uo_out[2]
*41 uo_out[3]
*42 uo_out[4]
*43 uo_out[5]
*44 uo_out[6]
*45 net12
*46 _0000_
*47 _0001_
*48 _0002_
*49 _0003_
*50 _0004_
*51 _0005_
*52 _0006_
*53 _0007_
*54 _0008_
*55 _0009_
*56 _0010_
*57 _0011_
*58 _0012_
*59 _0013_
*60 _0014_
*61 _0015_
*62 _0016_
*63 _0017_
*64 _0018_
*65 _0019_
*66 _0020_
*67 _0021_
*68 _0022_
*69 _0023_
*70 _0024_
*71 _0025_
*72 _0026_
*73 _0027_
*74 _0028_
*75 _0029_
*76 _0030_
*77 _0031_
*78 _0032_
*79 _0033_
*80 _0034_
*81 _0035_
*82 _0036_
*83 _0037_
*84 _0038_
*85 _0039_
*86 _0040_
*87 _0041_
*88 _0042_
*89 _0043_
*90 _0044_
*91 _0045_
*92 _0046_
*93 _0047_
*94 _0048_
*95 _0049_
*96 _0050_
*97 _0051_
*98 _0052_
*99 _0053_
*100 _0054_
*101 _0055_
*102 _0056_
*103 _0057_
*104 _0058_
*105 _0059_
*106 _0060_
*107 _0061_
*108 _0062_
*109 _0063_
*110 _0064_
*111 _0065_
*112 _0066_
*113 _0067_
*114 _0068_
*115 _0069_
*116 _0070_
*117 _0071_
*118 _0072_
*119 _0073_
*120 _0074_
*121 _0075_
*122 _0076_
*123 _0077_
*124 _0078_
*125 _0079_
*126 _0080_
*127 _0081_
*128 _0082_
*129 _0083_
*130 _0084_
*131 _0085_
*132 _0086_
*133 _0087_
*134 _0088_
*135 _0089_
*136 _0090_
*137 _0091_
*138 _0092_
*139 _0093_
*140 _0094_
*141 _0095_
*142 _0096_
*143 _0097_
*144 _0098_
*145 _0099_
*146 _0100_
*147 _0101_
*148 _0102_
*149 _0103_
*150 _0104_
*151 _0105_
*152 _0106_
*153 _0107_
*154 _0108_
*155 _0109_
*156 _0110_
*157 _0111_
*158 _0112_
*159 _0113_
*160 _0114_
*161 _0115_
*162 _0116_
*163 _0117_
*164 _0118_
*165 _0119_
*166 _0120_
*167 _0121_
*168 _0122_
*169 _0123_
*170 _0124_
*171 _0125_
*172 _0126_
*173 _0127_
*174 _0128_
*175 _0129_
*176 _0130_
*177 _0131_
*178 _0132_
*179 _0133_
*180 _0134_
*181 _0135_
*182 _0136_
*183 _0137_
*184 _0138_
*185 _0139_
*186 _0140_
*187 _0141_
*188 _0142_
*189 _0143_
*190 _0144_
*191 _0145_
*192 _0146_
*193 _0147_
*194 _0148_
*195 _0149_
*196 _0150_
*197 _0151_
*198 _0152_
*199 _0153_
*200 _0154_
*201 _0155_
*202 _0156_
*203 _0157_
*204 _0158_
*205 _0159_
*206 _0160_
*207 _0161_
*208 _0162_
*209 _0163_
*210 _0164_
*211 _0165_
*212 _0166_
*213 _0167_
*214 _0168_
*215 _0169_
*216 _0170_
*217 _0171_
*218 _0172_
*219 _0173_
*220 _0174_
*221 _0175_
*222 _0176_
*223 _0177_
*224 _0178_
*225 _0179_
*226 _0180_
*227 _0181_
*228 _0182_
*229 _0183_
*230 _0184_
*231 _0185_
*232 _0186_
*233 _0187_
*234 _0188_
*235 _0189_
*236 _0190_
*237 _0191_
*238 _0192_
*239 _0193_
*240 _0194_
*241 _0195_
*242 _0196_
*243 _0197_
*244 _0198_
*245 _0199_
*246 _0200_
*247 _0201_
*248 _0202_
*249 _0203_
*250 _0204_
*251 _0205_
*252 _0206_
*253 _0207_
*254 _0208_
*255 _0209_
*256 _0210_
*257 _0211_
*258 _0212_
*259 _0213_
*260 _0214_
*261 _0215_
*262 _0216_
*263 _0217_
*264 _0218_
*265 _0219_
*266 _0220_
*267 _0221_
*268 _0222_
*269 _0223_
*270 _0224_
*271 _0225_
*272 _0226_
*273 _0227_
*274 _0228_
*275 _0229_
*276 _0230_
*277 _0231_
*278 _0232_
*279 _0233_
*280 _0234_
*281 _0235_
*282 _0236_
*283 _0237_
*284 _0238_
*285 _0239_
*286 _0240_
*287 _0241_
*288 _0242_
*289 _0243_
*290 _0244_
*291 _0245_
*292 _0246_
*293 _0247_
*294 _0248_
*295 _0249_
*296 _0250_
*297 _0251_
*298 _0252_
*299 _0253_
*300 _0254_
*301 _0255_
*302 _0256_
*303 _0257_
*304 _0258_
*305 _0259_
*306 _0260_
*307 _0261_
*308 _0262_
*309 _0263_
*310 _0264_
*311 _0265_
*312 _0266_
*313 _0267_
*314 _0268_
*315 _0269_
*316 _0270_
*317 _0271_
*318 _0272_
*319 _0273_
*320 _0274_
*321 _0275_
*322 _0276_
*323 _0277_
*324 _0278_
*325 _0279_
*326 _0280_
*327 _0281_
*328 _0282_
*329 _0283_
*330 _0284_
*331 _0285_
*332 _0286_
*333 _0287_
*334 _0288_
*335 _0289_
*336 _0290_
*337 _0291_
*338 _0292_
*339 _0293_
*340 _0294_
*341 _0295_
*342 _0296_
*343 _0297_
*344 _0298_
*345 _0299_
*346 _0300_
*347 _0301_
*348 _0302_
*349 _0303_
*350 _0304_
*351 _0305_
*352 _0306_
*353 _0307_
*354 _0308_
*355 _0309_
*356 _0310_
*357 _0311_
*358 _0312_
*359 _0313_
*360 _0314_
*361 _0315_
*362 _0316_
*363 _0317_
*364 _0318_
*365 _0319_
*366 _0320_
*367 _0321_
*368 _0322_
*369 _0323_
*370 _0324_
*371 _0325_
*372 _0326_
*373 _0327_
*374 _0328_
*375 _0329_
*376 _0330_
*377 _0331_
*378 _0332_
*379 _0333_
*380 _0334_
*381 _0335_
*382 _0336_
*383 _0337_
*384 _0338_
*385 _0339_
*386 _0340_
*387 _0341_
*388 _0342_
*389 _0343_
*390 _0344_
*391 _0345_
*392 _0346_
*393 _0347_
*394 _0348_
*395 _0349_
*396 _0350_
*397 _0351_
*398 _0352_
*399 _0353_
*400 _0354_
*401 _0355_
*402 _0356_
*403 _0357_
*404 _0358_
*405 _0359_
*406 _0360_
*407 _0361_
*408 _0362_
*409 _0363_
*410 _0364_
*411 _0365_
*412 _0366_
*413 _0367_
*414 _0368_
*415 _0369_
*416 _0370_
*417 _0371_
*418 _0372_
*419 _0373_
*420 _0374_
*421 _0375_
*422 _0376_
*423 _0377_
*424 _0378_
*425 _0379_
*426 _0380_
*427 _0381_
*428 _0382_
*429 _0383_
*430 _0384_
*431 _0385_
*432 _0386_
*433 _0387_
*434 _0388_
*435 _0389_
*436 _0390_
*437 _0391_
*438 _0392_
*439 _0393_
*440 _0394_
*441 _0395_
*442 _0396_
*443 _0397_
*444 _0398_
*445 _0399_
*446 _0400_
*447 _0401_
*448 _0402_
*449 _0403_
*450 _0404_
*451 _0405_
*452 _0406_
*453 _0407_
*454 _0408_
*455 _0409_
*456 _0410_
*457 _0411_
*458 _0412_
*459 _0413_
*460 _0414_
*461 _0415_
*462 _0416_
*463 _0417_
*464 _0418_
*465 _0419_
*466 _0420_
*467 _0421_
*468 _0422_
*469 _0423_
*470 _0424_
*471 _0425_
*472 _0426_
*473 _0427_
*474 _0428_
*475 _0429_
*476 _0430_
*477 _0431_
*478 _0432_
*479 _0433_
*480 _0434_
*481 _0435_
*482 _0436_
*483 _0437_
*484 _0438_
*485 _0439_
*486 _0440_
*487 _0441_
*488 _0442_
*489 _0443_
*490 _0444_
*491 _0445_
*492 _0446_
*493 _0447_
*494 _0448_
*495 _0449_
*496 _0450_
*497 _0451_
*498 _0452_
*499 _0453_
*500 _0454_
*501 _0455_
*502 _0456_
*503 _0457_
*504 _0458_
*505 _0459_
*506 _0460_
*507 _0461_
*508 _0462_
*509 _0463_
*510 _0464_
*511 _0465_
*512 _0466_
*513 _0467_
*514 _0468_
*515 _0469_
*516 _0470_
*517 _0471_
*518 _0472_
*519 _0473_
*520 _0474_
*521 _0475_
*522 _0476_
*523 _0477_
*524 _0478_
*525 _0479_
*526 _0480_
*527 _0481_
*528 _0482_
*529 _0483_
*530 _0484_
*531 _0485_
*532 _0486_
*533 _0487_
*534 _0488_
*535 _0489_
*536 _0490_
*537 _0491_
*538 _0492_
*539 _0493_
*540 _0494_
*541 _0495_
*542 _0496_
*543 _0497_
*544 _0498_
*545 _0499_
*546 _0500_
*547 _0501_
*548 _0502_
*549 _0503_
*550 _0504_
*551 _0505_
*552 _0506_
*553 _0507_
*554 _0508_
*555 _0509_
*556 _0510_
*557 _0511_
*558 _0512_
*559 _0513_
*560 _0514_
*561 _0515_
*562 _0516_
*563 _0517_
*564 _0518_
*565 _0519_
*566 _0520_
*567 _0521_
*568 _0522_
*569 _0523_
*570 _0524_
*571 _0525_
*572 _0526_
*573 _0527_
*574 _0528_
*575 _0529_
*576 _0530_
*577 _0531_
*578 _0532_
*579 _0533_
*580 _0534_
*581 _0535_
*582 _0536_
*583 _0537_
*584 _0538_
*585 _0539_
*586 _0540_
*587 _0541_
*588 _0542_
*589 _0543_
*590 _0544_
*591 _0545_
*592 _0546_
*593 _0547_
*594 _0548_
*595 _0549_
*596 _0550_
*597 _0551_
*598 _0552_
*599 _0553_
*600 _0554_
*601 _0555_
*602 _0556_
*603 _0557_
*604 _0558_
*605 _0559_
*606 _0560_
*607 _0561_
*608 _0562_
*609 _0563_
*610 _0564_
*611 _0565_
*612 _0566_
*613 _0567_
*614 _0568_
*615 _0569_
*616 _0570_
*617 _0571_
*618 _0572_
*619 _0573_
*620 _0574_
*621 _0575_
*622 _0576_
*623 _0577_
*624 _0578_
*625 _0579_
*626 _0580_
*627 _0581_
*628 _0582_
*629 _0583_
*630 _0584_
*631 _0585_
*632 _0586_
*633 _0587_
*634 _0588_
*635 _0589_
*636 _0590_
*637 _0591_
*638 _0592_
*639 _0593_
*640 _0594_
*641 _0595_
*642 _0596_
*643 _0597_
*644 _0598_
*645 _0599_
*646 _0600_
*647 _0601_
*648 _0602_
*649 _0603_
*650 _0604_
*651 _0605_
*652 _0606_
*653 _0607_
*654 _0608_
*655 _0609_
*656 _0610_
*657 _0611_
*658 _0612_
*659 _0613_
*660 _0614_
*661 _0615_
*662 _0616_
*663 _0617_
*664 _0618_
*665 _0619_
*666 _0620_
*667 _0621_
*668 _0622_
*669 _0623_
*670 _0624_
*671 _0625_
*672 _0626_
*673 _0627_
*674 _0628_
*675 _0629_
*676 _0630_
*677 _0631_
*678 _0632_
*679 _0633_
*680 _0634_
*681 _0635_
*682 _0636_
*683 _0637_
*684 _0638_
*685 _0639_
*686 _0640_
*687 _0641_
*688 _0642_
*689 _0643_
*690 _0644_
*691 _0645_
*692 _0646_
*693 _0647_
*694 _0648_
*695 _0649_
*696 _0650_
*697 _0651_
*698 _0652_
*699 _0653_
*700 _0654_
*701 _0655_
*702 _0656_
*703 _0657_
*704 _0658_
*705 _0659_
*706 _0660_
*707 _0661_
*708 _0662_
*709 _0663_
*710 _0664_
*711 _0665_
*712 _0666_
*713 _0667_
*714 _0668_
*715 _0669_
*716 _0670_
*717 _0671_
*718 _0672_
*719 _0673_
*720 _0674_
*721 _0675_
*722 _0676_
*723 _0677_
*724 _0678_
*725 _0679_
*726 _0680_
*727 _0681_
*728 _0682_
*729 _0683_
*730 _0684_
*731 _0685_
*732 _0686_
*733 _0687_
*734 _0688_
*735 _0689_
*736 _0690_
*737 _0691_
*738 _0692_
*739 _0693_
*740 _0694_
*741 _0695_
*742 _0696_
*743 _0697_
*744 _0698_
*745 _0699_
*746 _0700_
*747 _0701_
*748 _0702_
*749 _0703_
*750 _0704_
*751 _0705_
*752 _0706_
*753 _0707_
*754 _0708_
*755 _0709_
*756 _0710_
*757 _0711_
*758 _0712_
*759 _0713_
*760 _0714_
*761 _0715_
*762 _0716_
*763 _0717_
*764 _0718_
*765 _0719_
*766 _0720_
*767 _0721_
*768 _0722_
*769 _0723_
*770 _0724_
*771 _0725_
*772 _0726_
*773 _0727_
*774 _0728_
*775 _0729_
*776 _0730_
*777 _0731_
*778 _0732_
*779 _0733_
*780 _0734_
*781 _0735_
*782 _0736_
*783 _0737_
*784 _0738_
*785 _0739_
*786 _0740_
*787 _0741_
*788 _0742_
*789 _0743_
*790 _0744_
*791 _0745_
*792 _0746_
*793 clknet_0_clk
*794 clknet_1_0__leaf_clk
*795 clknet_1_1__leaf_clk
*796 clknet_leaf_0_clk
*797 clknet_leaf_10_clk
*798 clknet_leaf_11_clk
*799 clknet_leaf_1_clk
*800 clknet_leaf_2_clk
*801 clknet_leaf_3_clk
*802 clknet_leaf_4_clk
*803 clknet_leaf_5_clk
*804 clknet_leaf_6_clk
*805 clknet_leaf_7_clk
*806 clknet_leaf_8_clk
*807 clknet_leaf_9_clk
*808 net1
*809 net10
*810 net100
*811 net101
*812 net102
*813 net103
*814 net104
*815 net105
*816 net106
*817 net107
*818 net108
*819 net109
*820 net11
*821 net110
*822 net111
*823 net112
*824 net113
*825 net114
*826 net115
*827 net116
*828 net117
*829 net118
*830 net119
*831 net120
*832 net121
*833 net122
*834 net123
*835 net124
*836 net125
*837 net126
*838 net127
*839 net128
*840 net129
*841 net130
*842 net131
*843 net132
*844 net133
*845 net134
*846 net135
*847 net136
*848 net137
*849 net138
*850 net139
*851 net140
*852 net141
*853 net142
*854 net143
*855 net144
*856 net2
*857 net25
*858 net26
*859 net27
*860 net28
*861 net29
*862 net3
*863 net30
*864 net31
*865 net32
*866 net33
*867 net34
*868 net35
*869 net36
*870 net37
*871 net38
*872 net39
*873 net4
*874 net40
*875 net41
*876 net42
*877 net43
*878 net44
*879 net45
*880 net46
*881 net47
*882 net48
*883 net49
*884 net5
*885 net50
*886 net51
*887 net52
*888 net53
*889 net54
*890 net55
*891 net56
*892 net57
*893 net58
*894 net59
*895 net6
*896 net60
*897 net61
*898 net62
*899 net63
*900 net64
*901 net65
*902 net66
*903 net67
*904 net68
*905 net69
*906 net7
*907 net70
*908 net71
*909 net72
*910 net73
*911 net74
*912 net75
*913 net76
*914 net77
*915 net78
*916 net79
*917 net8
*918 net80
*919 net81
*920 net82
*921 net83
*922 net84
*923 net85
*924 net86
*925 net87
*926 net88
*927 net89
*928 net9
*929 net90
*930 net91
*931 net92
*932 net93
*933 net94
*934 net95
*935 net96
*936 net97
*937 net98
*938 net99
*939 uut\.blink
*940 uut\.blink_disp\.blink_state
*941 uut\.blink_disp\.clk_1hz_last
*942 uut\.clock_divider_inst\.clk_1Hz_reg
*943 uut\.clock_divider_inst\.clk_1kHz_reg
*944 uut\.clock_divider_inst\.counter_1Hz\[0\]
*945 uut\.clock_divider_inst\.counter_1Hz\[10\]
*946 uut\.clock_divider_inst\.counter_1Hz\[11\]
*947 uut\.clock_divider_inst\.counter_1Hz\[12\]
*948 uut\.clock_divider_inst\.counter_1Hz\[13\]
*949 uut\.clock_divider_inst\.counter_1Hz\[14\]
*950 uut\.clock_divider_inst\.counter_1Hz\[15\]
*951 uut\.clock_divider_inst\.counter_1Hz\[16\]
*952 uut\.clock_divider_inst\.counter_1Hz\[17\]
*953 uut\.clock_divider_inst\.counter_1Hz\[18\]
*954 uut\.clock_divider_inst\.counter_1Hz\[19\]
*955 uut\.clock_divider_inst\.counter_1Hz\[1\]
*956 uut\.clock_divider_inst\.counter_1Hz\[20\]
*957 uut\.clock_divider_inst\.counter_1Hz\[21\]
*958 uut\.clock_divider_inst\.counter_1Hz\[22\]
*959 uut\.clock_divider_inst\.counter_1Hz\[23\]
*960 uut\.clock_divider_inst\.counter_1Hz\[2\]
*961 uut\.clock_divider_inst\.counter_1Hz\[3\]
*962 uut\.clock_divider_inst\.counter_1Hz\[4\]
*963 uut\.clock_divider_inst\.counter_1Hz\[5\]
*964 uut\.clock_divider_inst\.counter_1Hz\[6\]
*965 uut\.clock_divider_inst\.counter_1Hz\[7\]
*966 uut\.clock_divider_inst\.counter_1Hz\[8\]
*967 uut\.clock_divider_inst\.counter_1Hz\[9\]
*968 uut\.clock_divider_inst\.counter_1kHz\[0\]
*969 uut\.clock_divider_inst\.counter_1kHz\[10\]
*970 uut\.clock_divider_inst\.counter_1kHz\[11\]
*971 uut\.clock_divider_inst\.counter_1kHz\[12\]
*972 uut\.clock_divider_inst\.counter_1kHz\[13\]
*973 uut\.clock_divider_inst\.counter_1kHz\[1\]
*974 uut\.clock_divider_inst\.counter_1kHz\[2\]
*975 uut\.clock_divider_inst\.counter_1kHz\[3\]
*976 uut\.clock_divider_inst\.counter_1kHz\[4\]
*977 uut\.clock_divider_inst\.counter_1kHz\[5\]
*978 uut\.clock_divider_inst\.counter_1kHz\[6\]
*979 uut\.clock_divider_inst\.counter_1kHz\[7\]
*980 uut\.clock_divider_inst\.counter_1kHz\[8\]
*981 uut\.clock_divider_inst\.counter_1kHz\[9\]
*982 uut\.display_driver_inst\.bcd0\[0\]
*983 uut\.display_driver_inst\.bcd0\[1\]
*984 uut\.display_driver_inst\.bcd0\[2\]
*985 uut\.display_driver_inst\.bcd0\[3\]
*986 uut\.display_driver_inst\.bcd1\[0\]
*987 uut\.display_driver_inst\.bcd1\[1\]
*988 uut\.display_driver_inst\.bcd1\[2\]
*989 uut\.display_driver_inst\.bcd1\[3\]
*990 uut\.display_driver_inst\.bcd2\[0\]
*991 uut\.display_driver_inst\.bcd2\[1\]
*992 uut\.display_driver_inst\.bcd2\[2\]
*993 uut\.display_driver_inst\.bcd2\[3\]
*994 uut\.display_driver_inst\.bcd3\[0\]
*995 uut\.display_driver_inst\.bcd3\[1\]
*996 uut\.display_driver_inst\.bcd3\[2\]
*997 uut\.display_driver_inst\.bcd3\[3\]
*998 uut\.display_driver_inst\.digit0\[0\]
*999 uut\.display_driver_inst\.digit0\[1\]
*1000 uut\.display_driver_inst\.digit0\[2\]
*1001 uut\.display_driver_inst\.digit0\[3\]
*1002 uut\.display_driver_inst\.digit0\[4\]
*1003 uut\.display_driver_inst\.digit0\[5\]
*1004 uut\.display_driver_inst\.digit0\[6\]
*1005 uut\.display_driver_inst\.digit1\[0\]
*1006 uut\.display_driver_inst\.digit1\[1\]
*1007 uut\.display_driver_inst\.digit1\[2\]
*1008 uut\.display_driver_inst\.digit1\[3\]
*1009 uut\.display_driver_inst\.digit1\[4\]
*1010 uut\.display_driver_inst\.digit1\[5\]
*1011 uut\.display_driver_inst\.digit1\[6\]
*1012 uut\.display_driver_inst\.digit2\[0\]
*1013 uut\.display_driver_inst\.digit2\[1\]
*1014 uut\.display_driver_inst\.digit2\[2\]
*1015 uut\.display_driver_inst\.digit2\[3\]
*1016 uut\.display_driver_inst\.digit2\[4\]
*1017 uut\.display_driver_inst\.digit2\[5\]
*1018 uut\.display_driver_inst\.digit2\[6\]
*1019 uut\.display_driver_inst\.digit3\[0\]
*1020 uut\.display_driver_inst\.digit3\[1\]
*1021 uut\.display_driver_inst\.digit3\[2\]
*1022 uut\.display_driver_inst\.digit3\[3\]
*1023 uut\.display_driver_inst\.digit3\[4\]
*1024 uut\.display_driver_inst\.digit3\[5\]
*1025 uut\.display_driver_inst\.digit3\[6\]
*1026 uut\.display_driver_inst\.double_dabble_minutes\.bcd\[0\]
*1027 uut\.display_driver_inst\.double_dabble_minutes\.bcd\[1\]
*1028 uut\.display_driver_inst\.double_dabble_minutes\.bcd\[2\]
*1029 uut\.display_driver_inst\.double_dabble_minutes\.bcd\[3\]
*1030 uut\.display_driver_inst\.double_dabble_minutes\.bcd\[4\]
*1031 uut\.display_driver_inst\.double_dabble_minutes\.bcd\[5\]
*1032 uut\.display_driver_inst\.double_dabble_minutes\.bcd\[6\]
*1033 uut\.display_driver_inst\.double_dabble_minutes\.bcd\[7\]
*1034 uut\.display_driver_inst\.double_dabble_minutes\.bin\[0\]
*1035 uut\.display_driver_inst\.double_dabble_minutes\.bin\[1\]
*1036 uut\.display_driver_inst\.double_dabble_minutes\.bin\[2\]
*1037 uut\.display_driver_inst\.double_dabble_minutes\.bin\[3\]
*1038 uut\.display_driver_inst\.double_dabble_minutes\.bin\[4\]
*1039 uut\.display_driver_inst\.double_dabble_minutes\.bin\[5\]
*1040 uut\.display_driver_inst\.double_dabble_minutes\.clkcnt\[0\]
*1041 uut\.display_driver_inst\.double_dabble_minutes\.clkcnt\[1\]
*1042 uut\.display_driver_inst\.double_dabble_minutes\.clkcnt\[2\]
*1043 uut\.display_driver_inst\.double_dabble_minutes\.clkcnt\[3\]
*1044 uut\.display_driver_inst\.double_dabble_minutes\.ready
*1045 uut\.display_driver_inst\.double_dabble_minutes\.scratch\[0\]
*1046 uut\.display_driver_inst\.double_dabble_minutes\.scratch\[10\]
*1047 uut\.display_driver_inst\.double_dabble_minutes\.scratch\[11\]
*1048 uut\.display_driver_inst\.double_dabble_minutes\.scratch\[12\]
*1049 uut\.display_driver_inst\.double_dabble_minutes\.scratch\[13\]
*1050 uut\.display_driver_inst\.double_dabble_minutes\.scratch\[14\]
*1051 uut\.display_driver_inst\.double_dabble_minutes\.scratch\[15\]
*1052 uut\.display_driver_inst\.double_dabble_minutes\.scratch\[16\]
*1053 uut\.display_driver_inst\.double_dabble_minutes\.scratch\[17\]
*1054 uut\.display_driver_inst\.double_dabble_minutes\.scratch\[18\]
*1055 uut\.display_driver_inst\.double_dabble_minutes\.scratch\[19\]
*1056 uut\.display_driver_inst\.double_dabble_minutes\.scratch\[1\]
*1057 uut\.display_driver_inst\.double_dabble_minutes\.scratch\[20\]
*1058 uut\.display_driver_inst\.double_dabble_minutes\.scratch\[21\]
*1059 uut\.display_driver_inst\.double_dabble_minutes\.scratch\[2\]
*1060 uut\.display_driver_inst\.double_dabble_minutes\.scratch\[3\]
*1061 uut\.display_driver_inst\.double_dabble_minutes\.scratch\[4\]
*1062 uut\.display_driver_inst\.double_dabble_minutes\.scratch\[5\]
*1063 uut\.display_driver_inst\.double_dabble_minutes\.scratch\[6\]
*1064 uut\.display_driver_inst\.double_dabble_minutes\.scratch\[7\]
*1065 uut\.display_driver_inst\.double_dabble_minutes\.scratch\[8\]
*1066 uut\.display_driver_inst\.double_dabble_minutes\.scratch\[9\]
*1067 uut\.display_driver_inst\.double_dabble_minutes\.shift
*1068 uut\.display_driver_inst\.double_dabble_seconds\.bcd\[0\]
*1069 uut\.display_driver_inst\.double_dabble_seconds\.bcd\[1\]
*1070 uut\.display_driver_inst\.double_dabble_seconds\.bcd\[2\]
*1071 uut\.display_driver_inst\.double_dabble_seconds\.bcd\[3\]
*1072 uut\.display_driver_inst\.double_dabble_seconds\.bcd\[4\]
*1073 uut\.display_driver_inst\.double_dabble_seconds\.bcd\[5\]
*1074 uut\.display_driver_inst\.double_dabble_seconds\.bcd\[6\]
*1075 uut\.display_driver_inst\.double_dabble_seconds\.bcd\[7\]
*1076 uut\.display_driver_inst\.double_dabble_seconds\.bin\[0\]
*1077 uut\.display_driver_inst\.double_dabble_seconds\.bin\[1\]
*1078 uut\.display_driver_inst\.double_dabble_seconds\.bin\[2\]
*1079 uut\.display_driver_inst\.double_dabble_seconds\.bin\[3\]
*1080 uut\.display_driver_inst\.double_dabble_seconds\.bin\[4\]
*1081 uut\.display_driver_inst\.double_dabble_seconds\.bin\[5\]
*1082 uut\.display_driver_inst\.double_dabble_seconds\.clkcnt\[0\]
*1083 uut\.display_driver_inst\.double_dabble_seconds\.clkcnt\[1\]
*1084 uut\.display_driver_inst\.double_dabble_seconds\.clkcnt\[2\]
*1085 uut\.display_driver_inst\.double_dabble_seconds\.clkcnt\[3\]
*1086 uut\.display_driver_inst\.double_dabble_seconds\.ready
*1087 uut\.display_driver_inst\.double_dabble_seconds\.scratch\[0\]
*1088 uut\.display_driver_inst\.double_dabble_seconds\.scratch\[10\]
*1089 uut\.display_driver_inst\.double_dabble_seconds\.scratch\[11\]
*1090 uut\.display_driver_inst\.double_dabble_seconds\.scratch\[12\]
*1091 uut\.display_driver_inst\.double_dabble_seconds\.scratch\[13\]
*1092 uut\.display_driver_inst\.double_dabble_seconds\.scratch\[14\]
*1093 uut\.display_driver_inst\.double_dabble_seconds\.scratch\[15\]
*1094 uut\.display_driver_inst\.double_dabble_seconds\.scratch\[16\]
*1095 uut\.display_driver_inst\.double_dabble_seconds\.scratch\[17\]
*1096 uut\.display_driver_inst\.double_dabble_seconds\.scratch\[18\]
*1097 uut\.display_driver_inst\.double_dabble_seconds\.scratch\[19\]
*1098 uut\.display_driver_inst\.double_dabble_seconds\.scratch\[1\]
*1099 uut\.display_driver_inst\.double_dabble_seconds\.scratch\[20\]
*1100 uut\.display_driver_inst\.double_dabble_seconds\.scratch\[21\]
*1101 uut\.display_driver_inst\.double_dabble_seconds\.scratch\[2\]
*1102 uut\.display_driver_inst\.double_dabble_seconds\.scratch\[3\]
*1103 uut\.display_driver_inst\.double_dabble_seconds\.scratch\[4\]
*1104 uut\.display_driver_inst\.double_dabble_seconds\.scratch\[5\]
*1105 uut\.display_driver_inst\.double_dabble_seconds\.scratch\[6\]
*1106 uut\.display_driver_inst\.double_dabble_seconds\.scratch\[7\]
*1107 uut\.display_driver_inst\.double_dabble_seconds\.scratch\[8\]
*1108 uut\.display_driver_inst\.double_dabble_seconds\.scratch\[9\]
*1109 uut\.display_driver_inst\.double_dabble_seconds\.shift
*1110 uut\.display_driver_inst\.out_sel\[0\]
*1111 uut\.display_driver_inst\.out_sel\[1\]
*1112 uut\.display_driver_inst\.out_sel\[2\]
*1113 uut\.display_driver_inst\.out_sel\[3\]
*1114 uut\.display_driver_inst\.seg_driver\.clk_reduced
*1115 uut\.display_driver_inst\.seg_driver\.clk_reducer\.counter\[0\]
*1116 uut\.display_driver_inst\.seg_driver\.clk_reducer\.counter\[10\]
*1117 uut\.display_driver_inst\.seg_driver\.clk_reducer\.counter\[11\]
*1118 uut\.display_driver_inst\.seg_driver\.clk_reducer\.counter\[1\]
*1119 uut\.display_driver_inst\.seg_driver\.clk_reducer\.counter\[2\]
*1120 uut\.display_driver_inst\.seg_driver\.clk_reducer\.counter\[3\]
*1121 uut\.display_driver_inst\.seg_driver\.clk_reducer\.counter\[4\]
*1122 uut\.display_driver_inst\.seg_driver\.clk_reducer\.counter\[5\]
*1123 uut\.display_driver_inst\.seg_driver\.clk_reducer\.counter\[6\]
*1124 uut\.display_driver_inst\.seg_driver\.clk_reducer\.counter\[7\]
*1125 uut\.display_driver_inst\.seg_driver\.clk_reducer\.counter\[8\]
*1126 uut\.display_driver_inst\.seg_driver\.clk_reducer\.counter\[9\]
*1127 uut\.timer_module\.running
*1128 uut\.timer_module\.set_time
*1129 uut\.timer_module\.time_ms\[0\]
*1130 uut\.timer_module\.time_ms\[1\]
*1131 uut\.timer_module\.time_ms\[2\]
*1132 uut\.timer_module\.time_ms\[3\]
*1133 uut\.timer_module\.time_ms\[4\]
*1134 uut\.timer_module\.time_ms\[5\]
*1135 uut\.timer_module\.time_ms\[6\]
*1136 uut\.timer_module\.time_ms\[7\]
*1137 uut\.timer_module\.time_ms\[8\]
*1138 uut\.timer_module\.time_ms\[9\]
*1139 uut\.timer_module\.timer\.clk_1khz_prev
*1140 uut\.timer_module\.timer\.inc_min_prev
*1141 uut\.timer_module\.timer\.inc_sec_prev
*1142 FILLER_0_0_111
*1143 FILLER_0_0_117
*1144 FILLER_0_0_123
*1145 FILLER_0_0_127
*1146 FILLER_0_0_139
*1147 FILLER_0_0_141
*1148 FILLER_0_0_15
*1149 FILLER_0_0_152
*1150 FILLER_0_0_156
*1151 FILLER_0_0_166
*1152 FILLER_0_0_177
*1153 FILLER_0_0_185
*1154 FILLER_0_0_191
*1155 FILLER_0_0_195
*1156 FILLER_0_0_197
*1157 FILLER_0_0_209
*1158 FILLER_0_0_221
*1159 FILLER_0_0_225
*1160 FILLER_0_0_237
*1161 FILLER_0_0_249
*1162 FILLER_0_0_253
*1163 FILLER_0_0_265
*1164 FILLER_0_0_27
*1165 FILLER_0_0_273
*1166 FILLER_0_0_278
*1167 FILLER_0_0_281
*1168 FILLER_0_0_29
*1169 FILLER_0_0_293
*1170 FILLER_0_0_3
*1171 FILLER_0_0_305
*1172 FILLER_0_0_314
*1173 FILLER_0_0_326
*1174 FILLER_0_0_334
*1175 FILLER_0_0_337
*1176 FILLER_0_0_349
*1177 FILLER_0_0_41
*1178 FILLER_0_0_53
*1179 FILLER_0_0_57
*1180 FILLER_0_0_69
*1181 FILLER_0_0_81
*1182 FILLER_0_0_85
*1183 FILLER_0_0_93
*1184 FILLER_0_10_11
*1185 FILLER_0_10_110
*1186 FILLER_0_10_122
*1187 FILLER_0_10_141
*1188 FILLER_0_10_160
*1189 FILLER_0_10_168
*1190 FILLER_0_10_185
*1191 FILLER_0_10_193
*1192 FILLER_0_10_197
*1193 FILLER_0_10_209
*1194 FILLER_0_10_218
*1195 FILLER_0_10_260
*1196 FILLER_0_10_272
*1197 FILLER_0_10_296
*1198 FILLER_0_10_3
*1199 FILLER_0_10_307
*1200 FILLER_0_10_317
*1201 FILLER_0_10_349
*1202 FILLER_0_10_45
*1203 FILLER_0_10_53
*1204 FILLER_0_10_63
*1205 FILLER_0_10_81
*1206 FILLER_0_10_93
*1207 FILLER_0_11_105
*1208 FILLER_0_11_111
*1209 FILLER_0_11_121
*1210 FILLER_0_11_152
*1211 FILLER_0_11_158
*1212 FILLER_0_11_167
*1213 FILLER_0_11_18
*1214 FILLER_0_11_185
*1215 FILLER_0_11_193
*1216 FILLER_0_11_220
*1217 FILLER_0_11_225
*1218 FILLER_0_11_262
*1219 FILLER_0_11_274
*1220 FILLER_0_11_3
*1221 FILLER_0_11_313
*1222 FILLER_0_11_333
*1223 FILLER_0_11_350
*1224 FILLER_0_11_49
*1225 FILLER_0_11_55
*1226 FILLER_0_11_57
*1227 FILLER_0_11_63
*1228 FILLER_0_11_80
*1229 FILLER_0_12_141
*1230 FILLER_0_12_15
*1231 FILLER_0_12_151
*1232 FILLER_0_12_182
*1233 FILLER_0_12_195
*1234 FILLER_0_12_197
*1235 FILLER_0_12_206
*1236 FILLER_0_12_218
*1237 FILLER_0_12_230
*1238 FILLER_0_12_253
*1239 FILLER_0_12_260
*1240 FILLER_0_12_266
*1241 FILLER_0_12_27
*1242 FILLER_0_12_3
*1243 FILLER_0_12_309
*1244 FILLER_0_12_315
*1245 FILLER_0_12_348
*1246 FILLER_0_12_35
*1247 FILLER_0_12_52
*1248 FILLER_0_12_60
*1249 FILLER_0_12_83
*1250 FILLER_0_12_93
*1251 FILLER_0_13_129
*1252 FILLER_0_13_142
*1253 FILLER_0_13_177
*1254 FILLER_0_13_18
*1255 FILLER_0_13_191
*1256 FILLER_0_13_219
*1257 FILLER_0_13_22
*1258 FILLER_0_13_223
*1259 FILLER_0_13_225
*1260 FILLER_0_13_231
*1261 FILLER_0_13_245
*1262 FILLER_0_13_251
*1263 FILLER_0_13_255
*1264 FILLER_0_13_262
*1265 FILLER_0_13_274
*1266 FILLER_0_13_3
*1267 FILLER_0_13_302
*1268 FILLER_0_13_314
*1269 FILLER_0_13_334
*1270 FILLER_0_13_350
*1271 FILLER_0_13_46
*1272 FILLER_0_13_54
*1273 FILLER_0_13_57
*1274 FILLER_0_13_69
*1275 FILLER_0_13_96
*1276 FILLER_0_14_105
*1277 FILLER_0_14_133
*1278 FILLER_0_14_139
*1279 FILLER_0_14_141
*1280 FILLER_0_14_158
*1281 FILLER_0_14_182
*1282 FILLER_0_14_197
*1283 FILLER_0_14_249
*1284 FILLER_0_14_258
*1285 FILLER_0_14_266
*1286 FILLER_0_14_272
*1287 FILLER_0_14_278
*1288 FILLER_0_14_286
*1289 FILLER_0_14_29
*1290 FILLER_0_14_298
*1291 FILLER_0_14_3
*1292 FILLER_0_14_306
*1293 FILLER_0_14_309
*1294 FILLER_0_14_321
*1295 FILLER_0_14_336
*1296 FILLER_0_14_350
*1297 FILLER_0_14_56
*1298 FILLER_0_14_68
*1299 FILLER_0_14_76
*1300 FILLER_0_14_93
*1301 FILLER_0_15_110
*1302 FILLER_0_15_129
*1303 FILLER_0_15_160
*1304 FILLER_0_15_178
*1305 FILLER_0_15_23
*1306 FILLER_0_15_250
*1307 FILLER_0_15_272
*1308 FILLER_0_15_281
*1309 FILLER_0_15_293
*1310 FILLER_0_15_3
*1311 FILLER_0_15_345
*1312 FILLER_0_15_55
*1313 FILLER_0_15_57
*1314 FILLER_0_15_69
*1315 FILLER_0_15_73
*1316 FILLER_0_15_98
*1317 FILLER_0_16_101
*1318 FILLER_0_16_105
*1319 FILLER_0_16_135
*1320 FILLER_0_16_139
*1321 FILLER_0_16_161
*1322 FILLER_0_16_187
*1323 FILLER_0_16_197
*1324 FILLER_0_16_233
*1325 FILLER_0_16_247
*1326 FILLER_0_16_251
*1327 FILLER_0_16_253
*1328 FILLER_0_16_265
*1329 FILLER_0_16_27
*1330 FILLER_0_16_29
*1331 FILLER_0_16_3
*1332 FILLER_0_16_305
*1333 FILLER_0_16_350
*1334 FILLER_0_16_37
*1335 FILLER_0_16_43
*1336 FILLER_0_16_50
*1337 FILLER_0_16_61
*1338 FILLER_0_16_83
*1339 FILLER_0_16_94
*1340 FILLER_0_17_100
*1341 FILLER_0_17_109
*1342 FILLER_0_17_11
*1343 FILLER_0_17_130
*1344 FILLER_0_17_142
*1345 FILLER_0_17_147
*1346 FILLER_0_17_151
*1347 FILLER_0_17_17
*1348 FILLER_0_17_185
*1349 FILLER_0_17_233
*1350 FILLER_0_17_249
*1351 FILLER_0_17_260
*1352 FILLER_0_17_289
*1353 FILLER_0_17_295
*1354 FILLER_0_17_3
*1355 FILLER_0_17_32
*1356 FILLER_0_17_345
*1357 FILLER_0_17_38
*1358 FILLER_0_17_50
*1359 FILLER_0_17_57
*1360 FILLER_0_17_61
*1361 FILLER_0_18_104
*1362 FILLER_0_18_109
*1363 FILLER_0_18_135
*1364 FILLER_0_18_139
*1365 FILLER_0_18_141
*1366 FILLER_0_18_197
*1367 FILLER_0_18_231
*1368 FILLER_0_18_235
*1369 FILLER_0_18_273
*1370 FILLER_0_18_282
*1371 FILLER_0_18_299
*1372 FILLER_0_18_3
*1373 FILLER_0_18_307
*1374 FILLER_0_18_325
*1375 FILLER_0_18_345
*1376 FILLER_0_18_45
*1377 FILLER_0_18_60
*1378 FILLER_0_18_72
*1379 FILLER_0_18_98
*1380 FILLER_0_19_110
*1381 FILLER_0_19_133
*1382 FILLER_0_19_169
*1383 FILLER_0_19_189
*1384 FILLER_0_19_221
*1385 FILLER_0_19_225
*1386 FILLER_0_19_229
*1387 FILLER_0_19_277
*1388 FILLER_0_19_298
*1389 FILLER_0_19_3
*1390 FILLER_0_19_312
*1391 FILLER_0_19_316
*1392 FILLER_0_19_345
*1393 FILLER_0_19_55
*1394 FILLER_0_19_57
*1395 FILLER_0_19_69
*1396 FILLER_0_19_89
*1397 FILLER_0_19_9
*1398 FILLER_0_1_138
*1399 FILLER_0_1_142
*1400 FILLER_0_1_15
*1401 FILLER_0_1_167
*1402 FILLER_0_1_169
*1403 FILLER_0_1_195
*1404 FILLER_0_1_207
*1405 FILLER_0_1_247
*1406 FILLER_0_1_27
*1407 FILLER_0_1_288
*1408 FILLER_0_1_299
*1409 FILLER_0_1_3
*1410 FILLER_0_1_316
*1411 FILLER_0_1_337
*1412 FILLER_0_1_349
*1413 FILLER_0_1_39
*1414 FILLER_0_1_73
*1415 FILLER_0_1_85
*1416 FILLER_0_1_93
*1417 FILLER_0_20_100
*1418 FILLER_0_20_138
*1419 FILLER_0_20_141
*1420 FILLER_0_20_149
*1421 FILLER_0_20_194
*1422 FILLER_0_20_228
*1423 FILLER_0_20_232
*1424 FILLER_0_20_249
*1425 FILLER_0_20_253
*1426 FILLER_0_20_262
*1427 FILLER_0_20_270
*1428 FILLER_0_20_29
*1429 FILLER_0_20_297
*1430 FILLER_0_20_3
*1431 FILLER_0_20_305
*1432 FILLER_0_20_316
*1433 FILLER_0_20_343
*1434 FILLER_0_20_53
*1435 FILLER_0_21_122
*1436 FILLER_0_21_148
*1437 FILLER_0_21_156
*1438 FILLER_0_21_186
*1439 FILLER_0_21_190
*1440 FILLER_0_21_216
*1441 FILLER_0_21_225
*1442 FILLER_0_21_233
*1443 FILLER_0_21_240
*1444 FILLER_0_21_252
*1445 FILLER_0_21_264
*1446 FILLER_0_21_272
*1447 FILLER_0_21_3
*1448 FILLER_0_21_307
*1449 FILLER_0_21_315
*1450 FILLER_0_21_320
*1451 FILLER_0_21_350
*1452 FILLER_0_21_57
*1453 FILLER_0_22_105
*1454 FILLER_0_22_109
*1455 FILLER_0_22_126
*1456 FILLER_0_22_136
*1457 FILLER_0_22_176
*1458 FILLER_0_22_180
*1459 FILLER_0_22_189
*1460 FILLER_0_22_197
*1461 FILLER_0_22_218
*1462 FILLER_0_22_249
*1463 FILLER_0_22_253
*1464 FILLER_0_22_265
*1465 FILLER_0_22_27
*1466 FILLER_0_22_277
*1467 FILLER_0_22_29
*1468 FILLER_0_22_296
*1469 FILLER_0_22_3
*1470 FILLER_0_22_305
*1471 FILLER_0_22_309
*1472 FILLER_0_22_330
*1473 FILLER_0_22_55
*1474 FILLER_0_22_64
*1475 FILLER_0_22_88
*1476 FILLER_0_23_107
*1477 FILLER_0_23_11
*1478 FILLER_0_23_111
*1479 FILLER_0_23_113
*1480 FILLER_0_23_150
*1481 FILLER_0_23_167