*SPEF "ieee 1481-1999"
*DESIGN "tt_um_devinatkin_stopwatch"
*DATE "11:11:11 Fri 11 11, 1111"
*VENDOR "OpenRCX"
*PROGRAM "Parallel Extraction"
*VERSION "1.0"
*DESIGN_FLOW "NAME_SCOPE LOCAL" "PIN_CAP NONE"
*DIVIDER /
*DELIMITER :
*BUS_DELIMITER []
*T_UNIT 1 NS
*C_UNIT 1 PF
*R_UNIT 1 OHM
*L_UNIT 1 HENRY

*NAME_MAP
*3 clk
*4 ena
*5 rst_n
*6 ui_in[0]
*7 ui_in[1]
*8 ui_in[2]
*9 ui_in[3]
*10 ui_in[4]
*11 ui_in[5]
*12 ui_in[6]
*13 ui_in[7]
*14 uio_in[0]
*15 uio_in[1]
*16 uio_in[2]
*17 uio_in[3]
*18 uio_in[4]
*19 uio_in[5]
*20 uio_in[6]
*21 uio_in[7]
*22 net12
*23 net13
*24 net14
*25 net15
*26 net16
*27 net17
*28 net18
*29 net19
*30 uio_out[0]
*31 uio_out[1]
*32 uio_out[2]
*33 uio_out[3]
*34 net20
*35 net21
*36 net22
*37 net23
*38 uo_out[0]
*39 uo_out[1]
*40 uo_out[2]
*41 uo_out[3]
*42 uo_out[4]
*43 uo_out[5]
*44 uo_out[6]
*45 net11
*46 _0000_
*47 _0001_
*48 _0002_
*49 _0003_
*50 _0004_
*51 _0005_
*52 _0006_
*53 _0007_
*54 _0008_
*55 _0009_
*56 _0010_
*57 _0011_
*58 _0012_
*59 _0013_
*60 _0014_
*61 _0015_
*62 _0016_
*63 _0017_
*64 _0018_
*65 _0019_
*66 _0020_
*67 _0021_
*68 _0022_
*69 _0023_
*70 _0024_
*71 _0025_
*72 _0026_
*73 _0027_
*74 _0028_
*75 _0029_
*76 _0030_
*77 _0031_
*78 _0032_
*79 _0033_
*80 _0034_
*81 _0035_
*82 _0036_
*83 _0037_
*84 _0038_
*85 _0039_
*86 _0040_
*87 _0041_
*88 _0042_
*89 _0043_
*90 _0044_
*91 _0045_
*92 _0046_
*93 _0047_
*94 _0048_
*95 _0049_
*96 _0050_
*97 _0051_
*98 _0052_
*99 _0053_
*100 _0054_
*101 _0055_
*102 _0056_
*103 _0057_
*104 _0058_
*105 _0059_
*106 _0060_
*107 _0061_
*108 _0062_
*109 _0063_
*110 _0064_
*111 _0065_
*112 _0066_
*113 _0067_
*114 _0068_
*115 _0069_
*116 _0070_
*117 _0071_
*118 _0072_
*119 _0073_
*120 _0074_
*121 _0075_
*122 _0076_
*123 _0077_
*124 _0078_
*125 _0079_
*126 _0080_
*127 _0081_
*128 _0082_
*129 _0083_
*130 _0084_
*131 _0085_
*132 _0086_
*133 _0087_
*134 _0088_
*135 _0089_
*136 _0090_
*137 _0091_
*138 _0092_
*139 _0093_
*140 _0094_
*141 _0095_
*142 _0096_
*143 _0097_
*144 _0098_
*145 _0099_
*146 _0100_
*147 _0101_
*148 _0102_
*149 _0103_
*150 _0104_
*151 _0105_
*152 _0106_
*153 _0107_
*154 _0108_
*155 _0109_
*156 _0110_
*157 _0111_
*158 _0112_
*159 _0113_
*160 _0114_
*161 _0115_
*162 _0116_
*163 _0117_
*164 _0118_
*165 _0119_
*166 _0120_
*167 _0121_
*168 _0122_
*169 _0123_
*170 _0124_
*171 _0125_
*172 _0126_
*173 _0127_
*174 _0128_
*175 _0129_
*176 _0130_
*177 _0131_
*178 _0132_
*179 _0133_
*180 _0134_
*181 _0135_
*182 _0136_
*183 _0137_
*184 _0138_
*185 _0139_
*186 _0140_
*187 _0141_
*188 _0142_
*189 _0143_
*190 _0144_
*191 _0145_
*192 _0146_
*193 _0147_
*194 _0148_
*195 _0149_
*196 _0150_
*197 _0151_
*198 _0152_
*199 _0153_
*200 _0154_
*201 _0155_
*202 _0156_
*203 _0157_
*204 _0158_
*205 _0159_
*206 _0160_
*207 _0161_
*208 _0162_
*209 _0163_
*210 _0164_
*211 _0165_
*212 _0166_
*213 _0167_
*214 _0168_
*215 _0169_
*216 _0170_
*217 _0171_
*218 _0172_
*219 _0173_
*220 _0174_
*221 _0175_
*222 _0176_
*223 _0177_
*224 _0178_
*225 _0179_
*226 _0180_
*227 _0181_
*228 _0182_
*229 _0183_
*230 _0184_
*231 _0185_
*232 _0186_
*233 _0187_
*234 _0188_
*235 _0189_
*236 _0190_
*237 _0191_
*238 _0192_
*239 _0193_
*240 _0194_
*241 _0195_
*242 _0196_
*243 _0197_
*244 _0198_
*245 _0199_
*246 _0200_
*247 _0201_
*248 _0202_
*249 _0203_
*250 _0204_
*251 _0205_
*252 _0206_
*253 _0207_
*254 _0208_
*255 _0209_
*256 _0210_
*257 _0211_
*258 _0212_
*259 _0213_
*260 _0214_
*261 _0215_
*262 _0216_
*263 _0217_
*264 _0218_
*265 _0219_
*266 _0220_
*267 _0221_
*268 _0222_
*269 _0223_
*270 _0224_
*271 _0225_
*272 _0226_
*273 _0227_
*274 _0228_
*275 _0229_
*276 _0230_
*277 _0231_
*278 _0232_
*279 _0233_
*280 _0234_
*281 _0235_
*282 _0236_
*283 _0237_
*284 _0238_
*285 _0239_
*286 _0240_
*287 _0241_
*288 _0242_
*289 _0243_
*290 _0244_
*291 _0245_
*292 _0246_
*293 _0247_
*294 _0248_
*295 _0249_
*296 _0250_
*297 _0251_
*298 _0252_
*299 _0253_
*300 _0254_
*301 _0255_
*302 _0256_
*303 _0257_
*304 _0258_
*305 _0259_
*306 _0260_
*307 _0261_
*308 _0262_
*309 _0263_
*310 _0264_
*311 _0265_
*312 _0266_
*313 _0267_
*314 _0268_
*315 _0269_
*316 _0270_
*317 _0271_
*318 _0272_
*319 _0273_
*320 _0274_
*321 _0275_
*322 _0276_
*323 _0277_
*324 _0278_
*325 _0279_
*326 _0280_
*327 _0281_
*328 _0282_
*329 _0283_
*330 _0284_
*331 _0285_
*332 _0286_
*333 _0287_
*334 _0288_
*335 _0289_
*336 _0290_
*337 _0291_
*338 _0292_
*339 _0293_
*340 _0294_
*341 _0295_
*342 _0296_
*343 _0297_
*344 _0298_
*345 _0299_
*346 _0300_
*347 _0301_
*348 _0302_
*349 _0303_
*350 _0304_
*351 _0305_
*352 _0306_
*353 _0307_
*354 _0308_
*355 _0309_
*356 _0310_
*357 _0311_
*358 _0312_
*359 _0313_
*360 _0314_
*361 _0315_
*362 _0316_
*363 _0317_
*364 _0318_
*365 _0319_
*366 _0320_
*367 _0321_
*368 _0322_
*369 _0323_
*370 _0324_
*371 _0325_
*372 _0326_
*373 _0327_
*374 _0328_
*375 _0329_
*376 _0330_
*377 _0331_
*378 _0332_
*379 _0333_
*380 _0334_
*381 _0335_
*382 _0336_
*383 _0337_
*384 _0338_
*385 _0339_
*386 _0340_
*387 _0341_
*388 _0342_
*389 _0343_
*390 _0344_
*391 _0345_
*392 _0346_
*393 _0347_
*394 _0348_
*395 _0349_
*396 _0350_
*397 _0351_
*398 _0352_
*399 _0353_
*400 _0354_
*401 _0355_
*402 _0356_
*403 _0357_
*404 _0358_
*405 _0359_
*406 _0360_
*407 _0361_
*408 _0362_
*409 _0363_
*410 _0364_
*411 _0365_
*412 _0366_
*413 _0367_
*414 _0368_
*415 _0369_
*416 _0370_
*417 _0371_
*418 _0372_
*419 _0373_
*420 _0374_
*421 _0375_
*422 _0376_
*423 _0377_
*424 _0378_
*425 _0379_
*426 _0380_
*427 _0381_
*428 _0382_
*429 _0383_
*430 _0384_
*431 _0385_
*432 _0386_
*433 _0387_
*434 _0388_
*435 _0389_
*436 _0390_
*437 _0391_
*438 _0392_
*439 _0393_
*440 _0394_
*441 _0395_
*442 _0396_
*443 _0397_
*444 _0398_
*445 _0399_
*446 _0400_
*447 _0401_
*448 _0402_
*449 _0403_
*450 _0404_
*451 _0405_
*452 _0406_
*453 _0407_
*454 _0408_
*455 _0409_
*456 _0410_
*457 _0411_
*458 _0412_
*459 _0413_
*460 _0414_
*461 _0415_
*462 _0416_
*463 _0417_
*464 _0418_
*465 _0419_
*466 _0420_
*467 _0421_
*468 _0422_
*469 _0423_
*470 _0424_
*471 _0425_
*472 _0426_
*473 _0427_
*474 _0428_
*475 _0429_
*476 _0430_
*477 _0431_
*478 _0432_
*479 _0433_
*480 _0434_
*481 _0435_
*482 _0436_
*483 _0437_
*484 _0438_
*485 _0439_
*486 _0440_
*487 _0441_
*488 _0442_
*489 _0443_
*490 _0444_
*491 _0445_
*492 _0446_
*493 _0447_
*494 _0448_
*495 _0449_
*496 _0450_
*497 _0451_
*498 _0452_
*499 _0453_
*500 _0454_
*501 _0455_
*502 _0456_
*503 _0457_
*504 _0458_
*505 _0459_
*506 _0460_
*507 _0461_
*508 _0462_
*509 _0463_
*510 _0464_
*511 _0465_
*512 _0466_
*513 _0467_
*514 _0468_
*515 _0469_
*516 _0470_
*517 _0471_
*518 _0472_
*519 _0473_
*520 _0474_
*521 _0475_
*522 _0476_
*523 _0477_
*524 _0478_
*525 _0479_
*526 _0480_
*527 _0481_
*528 _0482_
*529 _0483_
*530 _0484_
*531 _0485_
*532 _0486_
*533 _0487_
*534 _0488_
*535 _0489_
*536 _0490_
*537 _0491_
*538 _0492_
*539 _0493_
*540 _0494_
*541 _0495_
*542 _0496_
*543 _0497_
*544 _0498_
*545 _0499_
*546 _0500_
*547 _0501_
*548 _0502_
*549 _0503_
*550 _0504_
*551 _0505_
*552 _0506_
*553 _0507_
*554 _0508_
*555 _0509_
*556 _0510_
*557 _0511_
*558 _0512_
*559 _0513_
*560 _0514_
*561 _0515_
*562 _0516_
*563 _0517_
*564 _0518_
*565 _0519_
*566 _0520_
*567 _0521_
*568 _0522_
*569 _0523_
*570 _0524_
*571 _0525_
*572 _0526_
*573 _0527_
*574 _0528_
*575 _0529_
*576 _0530_
*577 _0531_
*578 _0532_
*579 _0533_
*580 _0534_
*581 _0535_
*582 _0536_
*583 _0537_
*584 _0538_
*585 _0539_
*586 _0540_
*587 _0541_
*588 _0542_
*589 _0543_
*590 _0544_
*591 _0545_
*592 _0546_
*593 _0547_
*594 _0548_
*595 _0549_
*596 _0550_
*597 _0551_
*598 _0552_
*599 _0553_
*600 _0554_
*601 _0555_
*602 _0556_
*603 _0557_
*604 _0558_
*605 _0559_
*606 _0560_
*607 _0561_
*608 _0562_
*609 _0563_
*610 _0564_
*611 _0565_
*612 _0566_
*613 _0567_
*614 _0568_
*615 _0569_
*616 _0570_
*617 _0571_
*618 _0572_
*619 _0573_
*620 _0574_
*621 _0575_
*622 _0576_
*623 _0577_
*624 _0578_
*625 _0579_
*626 _0580_
*627 _0581_
*628 _0582_
*629 _0584_
*630 _0585_
*631 _0586_
*632 _0587_
*633 _0588_
*634 _0589_
*635 _0590_
*636 _0591_
*637 _0592_
*638 _0593_
*639 _0594_
*640 _0595_
*641 _0596_
*642 _0597_
*643 _0598_
*644 _0599_
*645 _0600_
*646 _0601_
*647 _0602_
*648 _0603_
*649 _0604_
*650 _0605_
*651 _0606_
*652 _0607_
*653 _0608_
*654 _0609_
*655 _0610_
*656 _0611_
*657 _0612_
*658 _0613_
*659 _0614_
*660 _0615_
*661 _0616_
*662 _0617_
*663 _0618_
*664 _0619_
*665 _0620_
*666 _0621_
*667 _0622_
*668 _0623_
*669 _0624_
*670 _0625_
*671 _0626_
*672 _0627_
*673 _0628_
*674 _0629_
*675 _0630_
*676 _0631_
*677 _0632_
*678 _0633_
*679 _0634_
*680 _0635_
*681 _0636_
*682 _0637_
*683 _0638_
*684 _0639_
*685 _0640_
*686 _0641_
*687 _0642_
*688 _0643_
*689 _0644_
*690 _0645_
*691 _0646_
*692 _0647_
*693 _0648_
*694 _0649_
*695 _0650_
*696 _0651_
*697 _0652_
*698 _0653_
*699 _0654_
*700 _0655_
*701 _0656_
*702 _0657_
*703 _0658_
*704 _0659_
*705 _0660_
*706 _0661_
*707 _0662_
*708 _0663_
*709 _0664_
*710 _0665_
*711 _0666_
*712 _0667_
*713 _0668_
*714 _0669_
*715 _0670_
*716 _0671_
*717 _0672_
*718 _0673_
*719 _0674_
*720 _0675_
*721 _0676_
*722 _0677_
*723 _0678_
*724 _0679_
*725 _0680_
*726 _0681_
*727 _0682_
*728 _0683_
*729 _0684_
*730 _0685_
*731 _0686_
*732 _0687_
*733 _0688_
*734 _0689_
*735 _0690_
*736 _0691_
*737 _0692_
*738 _0693_
*739 _0694_
*740 _0695_
*741 _0696_
*742 _0697_
*743 _0698_
*744 _0699_
*745 _0700_
*746 _0701_
*747 _0702_
*748 _0703_
*749 _0704_
*750 _0705_
*751 _0706_
*752 _0707_
*753 _0708_
*754 _0709_
*755 _0710_
*756 _0711_
*757 _0712_
*758 _0713_
*759 _0714_
*760 _0715_
*761 _0716_
*762 _0717_
*763 _0718_
*764 _0719_
*765 _0720_
*766 _0721_
*767 _0722_
*768 _0723_
*769 _0724_
*770 _0725_
*771 _0726_
*772 _0727_
*773 _0728_
*774 _0729_
*775 _0730_
*776 _0731_
*777 _0732_
*778 _0733_
*779 _0734_
*780 _0735_
*781 _0736_
*782 _0737_
*783 _0738_
*784 _0739_
*785 _0740_
*786 _0741_
*787 _0742_
*788 _0743_
*789 _0744_
*790 _0745_
*791 _0746_
*792 clknet_0__0570_
*793 clknet_0__0571_
*794 clknet_0__0572_
*795 clknet_0__0573_
*796 clknet_0__0574_
*797 clknet_0__0584_
*798 clknet_0__0585_
*799 clknet_0__0588_
*800 clknet_0__0591_
*801 clknet_0__0592_
*802 clknet_0__0594_
*803 clknet_0__0601_
*804 clknet_0__0602_
*805 clknet_0__0618_
*806 clknet_0__0647_
*807 clknet_0__0648_
*808 clknet_0__0649_
*809 clknet_0__0659_
*810 clknet_0__0662_
*811 clknet_0__0663_
*812 clknet_0__0665_
*813 clknet_0__0671_
*814 clknet_0__0672_
*815 clknet_0__0673_
*816 clknet_0_clk
*817 clknet_1_0__leaf__0570_
*818 clknet_1_0__leaf__0571_
*819 clknet_1_0__leaf__0572_
*820 clknet_1_0__leaf__0573_
*821 clknet_1_0__leaf__0574_
*822 clknet_1_0__leaf__0584_
*823 clknet_1_0__leaf__0585_
*824 clknet_1_0__leaf__0588_
*825 clknet_1_0__leaf__0591_
*826 clknet_1_0__leaf__0592_
*827 clknet_1_0__leaf__0594_
*828 clknet_1_0__leaf__0601_
*829 clknet_1_0__leaf__0602_
*830 clknet_1_0__leaf__0618_
*831 clknet_1_0__leaf__0647_
*832 clknet_1_0__leaf__0648_
*833 clknet_1_0__leaf__0649_
*834 clknet_1_0__leaf__0659_
*835 clknet_1_0__leaf__0662_
*836 clknet_1_0__leaf__0663_
*837 clknet_1_0__leaf__0665_
*838 clknet_1_0__leaf__0671_
*839 clknet_1_0__leaf__0672_
*840 clknet_1_0__leaf__0673_
*841 clknet_1_0__leaf_clk
*842 clknet_1_1__leaf__0570_
*843 clknet_1_1__leaf__0571_
*844 clknet_1_1__leaf__0572_
*845 clknet_1_1__leaf__0573_
*846 clknet_1_1__leaf__0574_
*847 clknet_1_1__leaf__0584_
*848 clknet_1_1__leaf__0585_
*849 clknet_1_1__leaf__0588_
*850 clknet_1_1__leaf__0591_
*851 clknet_1_1__leaf__0592_
*852 clknet_1_1__leaf__0594_
*853 clknet_1_1__leaf__0601_
*854 clknet_1_1__leaf__0602_
*855 clknet_1_1__leaf__0618_
*856 clknet_1_1__leaf__0647_
*857 clknet_1_1__leaf__0648_
*858 clknet_1_1__leaf__0649_
*859 clknet_1_1__leaf__0659_
*860 clknet_1_1__leaf__0662_
*861 clknet_1_1__leaf__0663_
*862 clknet_1_1__leaf__0665_
*863 clknet_1_1__leaf__0671_
*864 clknet_1_1__leaf__0672_
*865 clknet_1_1__leaf__0673_
*866 clknet_1_1__leaf_clk
*867 clknet_leaf_0_clk
*868 clknet_leaf_10_clk
*869 clknet_leaf_11_clk
*870 clknet_leaf_12_clk
*871 clknet_leaf_1_clk
*872 clknet_leaf_2_clk
*873 clknet_leaf_3_clk
*874 clknet_leaf_4_clk
*875 clknet_leaf_5_clk
*876 clknet_leaf_6_clk
*877 clknet_leaf_7_clk
*878 clknet_leaf_8_clk
*879 clknet_leaf_9_clk
*880 net1
*881 net10
*882 net2
*883 net24
*884 net25
*885 net26
*886 net27
*887 net28
*888 net29
*889 net3
*890 net30
*891 net31
*892 net32
*893 net33
*894 net34
*895 net35
*896 net36
*897 net37
*898 net38
*899 net39
*900 net4
*901 net40
*902 net41
*903 net42
*904 net43
*905 net44
*906 net45
*907 net46
*908 net47
*909 net48
*910 net49
*911 net5
*912 net50
*913 net51
*914 net52
*915 net53
*916 net54
*917 net55
*918 net56
*919 net57
*920 net58
*921 net59
*922 net6
*923 net60
*924 net61
*925 net62
*926 net63
*927 net64
*928 net65
*929 net66
*930 net67
*931 net68
*932 net69
*933 net7
*934 net70
*935 net71
*936 net72
*937 net73
*938 net74
*939 net75
*940 net8
*941 net9
*942 uut\.blink
*943 uut\.blink_disp\.blink_state
*944 uut\.blink_disp\.clk_1hz_last
*945 uut\.clock_divider_inst\.clk_1Hz_reg
*946 uut\.clock_divider_inst\.clk_1kHz_reg
*947 uut\.clock_divider_inst\.counter_1Hz\[0\]
*948 uut\.clock_divider_inst\.counter_1Hz\[10\]
*949 uut\.clock_divider_inst\.counter_1Hz\[11\]
*950 uut\.clock_divider_inst\.counter_1Hz\[12\]
*951 uut\.clock_divider_inst\.counter_1Hz\[13\]
*952 uut\.clock_divider_inst\.counter_1Hz\[14\]
*953 uut\.clock_divider_inst\.counter_1Hz\[15\]
*954 uut\.clock_divider_inst\.counter_1Hz\[16\]
*955 uut\.clock_divider_inst\.counter_1Hz\[17\]
*956 uut\.clock_divider_inst\.counter_1Hz\[18\]
*957 uut\.clock_divider_inst\.counter_1Hz\[19\]
*958 uut\.clock_divider_inst\.counter_1Hz\[1\]
*959 uut\.clock_divider_inst\.counter_1Hz\[20\]
*960 uut\.clock_divider_inst\.counter_1Hz\[21\]
*961 uut\.clock_divider_inst\.counter_1Hz\[22\]
*962 uut\.clock_divider_inst\.counter_1Hz\[23\]
*963 uut\.clock_divider_inst\.counter_1Hz\[2\]
*964 uut\.clock_divider_inst\.counter_1Hz\[3\]
*965 uut\.clock_divider_inst\.counter_1Hz\[4\]
*966 uut\.clock_divider_inst\.counter_1Hz\[5\]
*967 uut\.clock_divider_inst\.counter_1Hz\[6\]
*968 uut\.clock_divider_inst\.counter_1Hz\[7\]
*969 uut\.clock_divider_inst\.counter_1Hz\[8\]
*970 uut\.clock_divider_inst\.counter_1Hz\[9\]
*971 uut\.clock_divider_inst\.counter_1kHz\[0\]
*972 uut\.clock_divider_inst\.counter_1kHz\[10\]
*973 uut\.clock_divider_inst\.counter_1kHz\[11\]
*974 uut\.clock_divider_inst\.counter_1kHz\[12\]
*975 uut\.clock_divider_inst\.counter_1kHz\[13\]
*976 uut\.clock_divider_inst\.counter_1kHz\[1\]
*977 uut\.clock_divider_inst\.counter_1kHz\[2\]
*978 uut\.clock_divider_inst\.counter_1kHz\[3\]
*979 uut\.clock_divider_inst\.counter_1kHz\[4\]
*980 uut\.clock_divider_inst\.counter_1kHz\[5\]
*981 uut\.clock_divider_inst\.counter_1kHz\[6\]
*982 uut\.clock_divider_inst\.counter_1kHz\[7\]
*983 uut\.clock_divider_inst\.counter_1kHz\[8\]
*984 uut\.clock_divider_inst\.counter_1kHz\[9\]
*985 uut\.display_driver_inst\.bcd0\[0\]
*986 uut\.display_driver_inst\.bcd0\[1\]
*987 uut\.display_driver_inst\.bcd0\[2\]
*988 uut\.display_driver_inst\.bcd0\[3\]
*989 uut\.display_driver_inst\.bcd1\[0\]
*990 uut\.display_driver_inst\.bcd1\[1\]
*991 uut\.display_driver_inst\.bcd1\[2\]
*992 uut\.display_driver_inst\.bcd1\[3\]
*993 uut\.display_driver_inst\.bcd2\[0\]
*994 uut\.display_driver_inst\.bcd2\[1\]
*995 uut\.display_driver_inst\.bcd2\[2\]
*996 uut\.display_driver_inst\.bcd2\[3\]
*997 uut\.display_driver_inst\.bcd3\[0\]
*998 uut\.display_driver_inst\.bcd3\[1\]
*999 uut\.display_driver_inst\.bcd3\[2\]
*1000 uut\.display_driver_inst\.bcd3\[3\]
*1001 uut\.display_driver_inst\.digit0\[0\]
*1002 uut\.display_driver_inst\.digit0\[1\]
*1003 uut\.display_driver_inst\.digit0\[2\]
*1004 uut\.display_driver_inst\.digit0\[3\]
*1005 uut\.display_driver_inst\.digit0\[4\]
*1006 uut\.display_driver_inst\.digit0\[5\]
*1007 uut\.display_driver_inst\.digit0\[6\]
*1008 uut\.display_driver_inst\.digit1\[0\]
*1009 uut\.display_driver_inst\.digit1\[1\]
*1010 uut\.display_driver_inst\.digit1\[2\]
*1011 uut\.display_driver_inst\.digit1\[3\]
*1012 uut\.display_driver_inst\.digit1\[4\]
*1013 uut\.display_driver_inst\.digit1\[5\]
*1014 uut\.display_driver_inst\.digit1\[6\]
*1015 uut\.display_driver_inst\.digit2\[0\]
*1016 uut\.display_driver_inst\.digit2\[1\]
*1017 uut\.display_driver_inst\.digit2\[2\]
*1018 uut\.display_driver_inst\.digit2\[3\]
*1019 uut\.display_driver_inst\.digit2\[4\]
*1020 uut\.display_driver_inst\.digit2\[5\]
*1021 uut\.display_driver_inst\.digit2\[6\]
*1022 uut\.display_driver_inst\.digit3\[0\]
*1023 uut\.display_driver_inst\.digit3\[1\]
*1024 uut\.display_driver_inst\.digit3\[2\]
*1025 uut\.display_driver_inst\.digit3\[3\]
*1026 uut\.display_driver_inst\.digit3\[4\]
*1027 uut\.display_driver_inst\.digit3\[5\]
*1028 uut\.display_driver_inst\.digit3\[6\]
*1029 uut\.display_driver_inst\.double_dabble_minutes\.bcd\[0\]
*1030 uut\.display_driver_inst\.double_dabble_minutes\.bcd\[1\]
*1031 uut\.display_driver_inst\.double_dabble_minutes\.bcd\[2\]
*1032 uut\.display_driver_inst\.double_dabble_minutes\.bcd\[3\]
*1033 uut\.display_driver_inst\.double_dabble_minutes\.bcd\[4\]
*1034 uut\.display_driver_inst\.double_dabble_minutes\.bcd\[5\]
*1035 uut\.display_driver_inst\.double_dabble_minutes\.bcd\[6\]
*1036 uut\.display_driver_inst\.double_dabble_minutes\.bcd\[7\]
*1037 uut\.display_driver_inst\.double_dabble_minutes\.bin\[0\]
*1038 uut\.display_driver_inst\.double_dabble_minutes\.bin\[1\]
*1039 uut\.display_driver_inst\.double_dabble_minutes\.bin\[2\]
*1040 uut\.display_driver_inst\.double_dabble_minutes\.bin\[3\]
*1041 uut\.display_driver_inst\.double_dabble_minutes\.bin\[4\]
*1042 uut\.display_driver_inst\.double_dabble_minutes\.bin\[5\]
*1043 uut\.display_driver_inst\.double_dabble_minutes\.clkcnt\[0\]
*1044 uut\.display_driver_inst\.double_dabble_minutes\.clkcnt\[1\]
*1045 uut\.display_driver_inst\.double_dabble_minutes\.clkcnt\[2\]
*1046 uut\.display_driver_inst\.double_dabble_minutes\.clkcnt\[3\]
*1047 uut\.display_driver_inst\.double_dabble_minutes\.ready
*1048 uut\.display_driver_inst\.double_dabble_minutes\.scratch\[0\]
*1049 uut\.display_driver_inst\.double_dabble_minutes\.scratch\[10\]
*1050 uut\.display_driver_inst\.double_dabble_minutes\.scratch\[11\]
*1051 uut\.display_driver_inst\.double_dabble_minutes\.scratch\[12\]
*1052 uut\.display_driver_inst\.double_dabble_minutes\.scratch\[13\]
*1053 uut\.display_driver_inst\.double_dabble_minutes\.scratch\[14\]
*1054 uut\.display_driver_inst\.double_dabble_minutes\.scratch\[15\]
*1055 uut\.display_driver_inst\.double_dabble_minutes\.scratch\[16\]
*1056 uut\.display_driver_inst\.double_dabble_minutes\.scratch\[17\]
*1057 uut\.display_driver_inst\.double_dabble_minutes\.scratch\[18\]
*1058 uut\.display_driver_inst\.double_dabble_minutes\.scratch\[19\]
*1059 uut\.display_driver_inst\.double_dabble_minutes\.scratch\[1\]
*1060 uut\.display_driver_inst\.double_dabble_minutes\.scratch\[20\]
*1061 uut\.display_driver_inst\.double_dabble_minutes\.scratch\[21\]
*1062 uut\.display_driver_inst\.double_dabble_minutes\.scratch\[2\]
*1063 uut\.display_driver_inst\.double_dabble_minutes\.scratch\[3\]
*1064 uut\.display_driver_inst\.double_dabble_minutes\.scratch\[4\]
*1065 uut\.display_driver_inst\.double_dabble_minutes\.scratch\[5\]
*1066 uut\.display_driver_inst\.double_dabble_minutes\.scratch\[6\]
*1067 uut\.display_driver_inst\.double_dabble_minutes\.scratch\[7\]
*1068 uut\.display_driver_inst\.double_dabble_minutes\.scratch\[8\]
*1069 uut\.display_driver_inst\.double_dabble_minutes\.scratch\[9\]
*1070 uut\.display_driver_inst\.double_dabble_seconds\.bcd\[0\]
*1071 uut\.display_driver_inst\.double_dabble_seconds\.bcd\[1\]
*1072 uut\.display_driver_inst\.double_dabble_seconds\.bcd\[2\]
*1073 uut\.display_driver_inst\.double_dabble_seconds\.bcd\[3\]
*1074 uut\.display_driver_inst\.double_dabble_seconds\.bcd\[4\]
*1075 uut\.display_driver_inst\.double_dabble_seconds\.bcd\[5\]
*1076 uut\.display_driver_inst\.double_dabble_seconds\.bcd\[6\]
*1077 uut\.display_driver_inst\.double_dabble_seconds\.bcd\[7\]
*1078 uut\.display_driver_inst\.double_dabble_seconds\.bin\[0\]
*1079 uut\.display_driver_inst\.double_dabble_seconds\.bin\[1\]
*1080 uut\.display_driver_inst\.double_dabble_seconds\.bin\[2\]
*1081 uut\.display_driver_inst\.double_dabble_seconds\.bin\[3\]
*1082 uut\.display_driver_inst\.double_dabble_seconds\.bin\[4\]
*1083 uut\.display_driver_inst\.double_dabble_seconds\.bin\[5\]
*1084 uut\.display_driver_inst\.double_dabble_seconds\.clkcnt\[0\]
*1085 uut\.display_driver_inst\.double_dabble_seconds\.clkcnt\[1\]
*1086 uut\.display_driver_inst\.double_dabble_seconds\.clkcnt\[2\]
*1087 uut\.display_driver_inst\.double_dabble_seconds\.clkcnt\[3\]
*1088 uut\.display_driver_inst\.double_dabble_seconds\.ready
*1089 uut\.display_driver_inst\.double_dabble_seconds\.scratch\[0\]
*1090 uut\.display_driver_inst\.double_dabble_seconds\.scratch\[10\]
*1091 uut\.display_driver_inst\.double_dabble_seconds\.scratch\[11\]
*1092 uut\.display_driver_inst\.double_dabble_seconds\.scratch\[12\]
*1093 uut\.display_driver_inst\.double_dabble_seconds\.scratch\[13\]
*1094 uut\.display_driver_inst\.double_dabble_seconds\.scratch\[14\]
*1095 uut\.display_driver_inst\.double_dabble_seconds\.scratch\[15\]
*1096 uut\.display_driver_inst\.double_dabble_seconds\.scratch\[16\]
*1097 uut\.display_driver_inst\.double_dabble_seconds\.scratch\[17\]
*1098 uut\.display_driver_inst\.double_dabble_seconds\.scratch\[18\]
*1099 uut\.display_driver_inst\.double_dabble_seconds\.scratch\[19\]
*1100 uut\.display_driver_inst\.double_dabble_seconds\.scratch\[1\]
*1101 uut\.display_driver_inst\.double_dabble_seconds\.scratch\[20\]
*1102 uut\.display_driver_inst\.double_dabble_seconds\.scratch\[21\]
*1103 uut\.display_driver_inst\.double_dabble_seconds\.scratch\[2\]
*1104 uut\.display_driver_inst\.double_dabble_seconds\.scratch\[3\]
*1105 uut\.display_driver_inst\.double_dabble_seconds\.scratch\[4\]
*1106 uut\.display_driver_inst\.double_dabble_seconds\.scratch\[5\]
*1107 uut\.display_driver_inst\.double_dabble_seconds\.scratch\[6\]
*1108 uut\.display_driver_inst\.double_dabble_seconds\.scratch\[7\]
*1109 uut\.display_driver_inst\.double_dabble_seconds\.scratch\[8\]
*1110 uut\.display_driver_inst\.double_dabble_seconds\.scratch\[9\]
*1111 uut\.display_driver_inst\.out_sel\[0\]
*1112 uut\.display_driver_inst\.out_sel\[1\]
*1113 uut\.display_driver_inst\.out_sel\[2\]
*1114 uut\.display_driver_inst\.out_sel\[3\]
*1115 uut\.display_driver_inst\.seg_driver\.clk_reduced
*1116 uut\.display_driver_inst\.seg_driver\.clk_reducer\.counter\[0\]
*1117 uut\.display_driver_inst\.seg_driver\.clk_reducer\.counter\[10\]
*1118 uut\.display_driver_inst\.seg_driver\.clk_reducer\.counter\[11\]
*1119 uut\.display_driver_inst\.seg_driver\.clk_reducer\.counter\[1\]
*1120 uut\.display_driver_inst\.seg_driver\.clk_reducer\.counter\[2\]
*1121 uut\.display_driver_inst\.seg_driver\.clk_reducer\.counter\[3\]
*1122 uut\.display_driver_inst\.seg_driver\.clk_reducer\.counter\[4\]
*1123 uut\.display_driver_inst\.seg_driver\.clk_reducer\.counter\[5\]
*1124 uut\.display_driver_inst\.seg_driver\.clk_reducer\.counter\[6\]
*1125 uut\.display_driver_inst\.seg_driver\.clk_reducer\.counter\[7\]
*1126 uut\.display_driver_inst\.seg_driver\.clk_reducer\.counter\[8\]
*1127 uut\.display_driver_inst\.seg_driver\.clk_reducer\.counter\[9\]
*1128 uut\.timer_module\.running
*1129 uut\.timer_module\.set_time
*1130 uut\.timer_module\.time_ms\[0\]
*1131 uut\.timer_module\.time_ms\[1\]
*1132 uut\.timer_module\.time_ms\[2\]
*1133 uut\.timer_module\.time_ms\[3\]
*1134 uut\.timer_module\.time_ms\[4\]
*1135 uut\.timer_module\.time_ms\[5\]
*1136 uut\.timer_module\.time_ms\[6\]
*1137 uut\.timer_module\.time_ms\[7\]
*1138 uut\.timer_module\.time_ms\[8\]
*1139 uut\.timer_module\.time_ms\[9\]
*1140 uut\.timer_module\.timer\.clk_1khz_prev
*1141 uut\.timer_module\.timer\.inc_min_prev
*1142 uut\.timer_module\.timer\.inc_sec_prev
*1143 FILLER_0_0_109
*1144 FILLER_0_0_113
*1145 FILLER_0_0_117
*1146 FILLER_0_0_121
*1147 FILLER_0_0_132
*1148 FILLER_0_0_141
*1149 FILLER_0_0_15
*1150 FILLER_0_0_154
*1151 FILLER_0_0_160
*1152 FILLER_0_0_169
*1153 FILLER_0_0_181
*1154 FILLER_0_0_193
*1155 FILLER_0_0_202
*1156 FILLER_0_0_214
*1157 FILLER_0_0_222
*1158 FILLER_0_0_225
*1159 FILLER_0_0_237
*1160 FILLER_0_0_241
*1161 FILLER_0_0_245
*1162 FILLER_0_0_251
*1163 FILLER_0_0_253
*1164 FILLER_0_0_265
*1165 FILLER_0_0_27
*1166 FILLER_0_0_277
*1167 FILLER_0_0_281
*1168 FILLER_0_0_29
*1169 FILLER_0_0_3
*1170 FILLER_0_0_301
*1171 FILLER_0_0_307
*1172 FILLER_0_0_309
*1173 FILLER_0_0_321
*1174 FILLER_0_0_333
*1175 FILLER_0_0_337
*1176 FILLER_0_0_349
*1177 FILLER_0_0_36
*1178 FILLER_0_0_48
*1179 FILLER_0_0_57
*1180 FILLER_0_0_65
*1181 FILLER_0_0_83
*1182 FILLER_0_0_85
*1183 FILLER_0_0_97
*1184 FILLER_0_10_197
*1185 FILLER_0_10_225
*1186 FILLER_0_10_233
*1187 FILLER_0_10_250
*1188 FILLER_0_10_264
*1189 FILLER_0_10_27
*1190 FILLER_0_10_270
*1191 FILLER_0_10_3
*1192 FILLER_0_10_303
*1193 FILLER_0_10_314
*1194 FILLER_0_10_340
*1195 FILLER_0_10_348
*1196 FILLER_0_10_37
*1197 FILLER_0_10_80
*1198 FILLER_0_11_11
*1199 FILLER_0_11_118
*1200 FILLER_0_11_185
*1201 FILLER_0_11_202
*1202 FILLER_0_11_214
*1203 FILLER_0_11_223
*1204 FILLER_0_11_225
*1205 FILLER_0_11_229
*1206 FILLER_0_11_263
*1207 FILLER_0_11_292
*1208 FILLER_0_11_3
*1209 FILLER_0_11_304
*1210 FILLER_0_11_322
*1211 FILLER_0_11_343
*1212 FILLER_0_11_7
*1213 FILLER_0_12_126
*1214 FILLER_0_12_141
*1215 FILLER_0_12_251
*1216 FILLER_0_12_253
*1217 FILLER_0_12_3
*1218 FILLER_0_12_302
*1219 FILLER_0_12_309
*1220 FILLER_0_12_321
*1221 FILLER_0_12_343
*1222 FILLER_0_12_85
*1223 FILLER_0_13_126
*1224 FILLER_0_13_169
*1225 FILLER_0_13_191
*1226 FILLER_0_13_221
*1227 FILLER_0_13_26
*1228 FILLER_0_13_3
*1229 FILLER_0_13_301
*1230 FILLER_0_13_313
*1231 FILLER_0_13_319
*1232 FILLER_0_13_346
*1233 FILLER_0_13_35
*1234 FILLER_0_13_350
*1235 FILLER_0_14_141
*1236 FILLER_0_14_155
*1237 FILLER_0_14_251
*1238 FILLER_0_14_280
*1239 FILLER_0_14_3
*1240 FILLER_0_14_316
*1241 FILLER_0_14_339
*1242 FILLER_0_15_279
*1243 FILLER_0_15_281
*1244 FILLER_0_15_3
*1245 FILLER_0_15_302
*1246 FILLER_0_15_310
*1247 FILLER_0_15_333
*1248 FILLER_0_15_346
*1249 FILLER_0_15_350
*1250 FILLER_0_16_141
*1251 FILLER_0_16_187
*1252 FILLER_0_16_210
*1253 FILLER_0_16_253
*1254 FILLER_0_16_26
*1255 FILLER_0_16_3
*1256 FILLER_0_16_307
*1257 FILLER_0_16_341
*1258 FILLER_0_16_349
*1259 FILLER_0_16_69
*1260 FILLER_0_16_85
*1261 FILLER_0_17_141
*1262 FILLER_0_17_169
*1263 FILLER_0_17_267
*1264 FILLER_0_17_279
*1265 FILLER_0_17_289
*1266 FILLER_0_17_3
*1267 FILLER_0_17_301
*1268 FILLER_0_17_309
*1269 FILLER_0_17_31
*1270 FILLER_0_17_318
*1271 FILLER_0_17_48
*1272 FILLER_0_17_87
*1273 FILLER_0_18_105
*1274 FILLER_0_18_161
*1275 FILLER_0_18_197
*1276 FILLER_0_18_23
*1277 FILLER_0_18_248
*1278 FILLER_0_18_273
*1279 FILLER_0_18_277
*1280 FILLER_0_18_286
*1281 FILLER_0_18_29
*1282 FILLER_0_18_3
*1283 FILLER_0_18_303
*1284 FILLER_0_18_307
*1285 FILLER_0_18_309
*1286 FILLER_0_18_344
*1287 FILLER_0_18_350
*1288 FILLER_0_18_39
*1289 FILLER_0_18_49
*1290 FILLER_0_19_141
*1291 FILLER_0_19_162
*1292 FILLER_0_19_169
*1293 FILLER_0_19_200
*1294 FILLER_0_19_221
*1295 FILLER_0_19_225
*1296 FILLER_0_19_23
*1297 FILLER_0_19_267
*1298 FILLER_0_19_279
*1299 FILLER_0_19_314
*1300 FILLER_0_19_331
*1301 FILLER_0_19_335
*1302 FILLER_0_19_345
*1303 FILLER_0_19_53
*1304 FILLER_0_19_85
*1305 FILLER_0_1_142
*1306 FILLER_0_1_15
*1307 FILLER_0_1_167
*1308 FILLER_0_1_169
*1309 FILLER_0_1_177
*1310 FILLER_0_1_225
*1311 FILLER_0_1_233
*1312 FILLER_0_1_27
*1313 FILLER_0_1_271
*1314 FILLER_0_1_279
*1315 FILLER_0_1_3
*1316 FILLER_0_1_310
*1317 FILLER_0_1_314
*1318 FILLER_0_1_337
*1319 FILLER_0_1_349
*1320 FILLER_0_1_45
*1321 FILLER_0_1_53
*1322 FILLER_0_1_95
*1323 FILLER_0_20_11
*1324 FILLER_0_20_126
*1325 FILLER_0_20_173
*1326 FILLER_0_20_194
*1327 FILLER_0_20_221
*1328 FILLER_0_20_225
*1329 FILLER_0_20_251
*1330 FILLER_0_20_269
*1331 FILLER_0_20_277
*1332 FILLER_0_20_29
*1333 FILLER_0_20_3
*1334 FILLER_0_20_309
*1335 FILLER_0_20_313
*1336 FILLER_0_20_318
*1337 FILLER_0_20_324
*1338 FILLER_0_20_334
*1339 FILLER_0_20_346
*1340 FILLER_0_20_350
*1341 FILLER_0_20_83
*1342 FILLER_0_20_91
*1343 FILLER_0_21_172
*1344 FILLER_0_21_182
*1345 FILLER_0_21_200
*1346 FILLER_0_21_225
*1347 FILLER_0_21_237
*1348 FILLER_0_21_246
*1349 FILLER_0_21_267
*1350 FILLER_0_21_279
*1351 FILLER_0_21_281
*1352 FILLER_0_21_287
*1353 FILLER_0_21_291
*1354 FILLER_0_21_295
*1355 FILLER_0_21_3
*1356 FILLER_0_21_306
*1357 FILLER_0_21_318
*1358 FILLER_0_21_334
*1359 FILLER_0_21_342
*1360 FILLER_0_21_35
*1361 FILLER_0_21_350
*1362 FILLER_0_21_57
*1363 FILLER_0_22_118
*1364 FILLER_0_22_146
*1365 FILLER_0_22_164
*1366 FILLER_0_22_172
*1367 FILLER_0_22_191
*1368 FILLER_0_22_195
*1369 FILLER_0_22_213
*1370 FILLER_0_22_225
*1371 FILLER_0_22_249
*1372 FILLER_0_22_263
*1373 FILLER_0_22_275
*1374 FILLER_0_22_283
*1375 FILLER_0_22_29
*1376 FILLER_0_22_296
*1377 FILLER_0_22_3
*1378 FILLER_0_22_301
*1379 FILLER_0_22_307
*1380 FILLER_0_22_309
*1381 FILLER_0_22_334
*1382 FILLER_0_22_346
*1383 FILLER_0_22_350
*1384 FILLER_0_22_93
*1385 FILLER_0_23_11
*1386 FILLER_0_23_116
*1387 FILLER_0_23_122
*1388 FILLER_0_23_144
*1389 FILLER_0_23_160
*1390 FILLER_0_23_169
*1391 FILLER_0_23_181
*1392 FILLER_0_23_215
*1393 FILLER_0_23_223
*1394 FILLER_0_23_225
*1395 FILLER_0_23_270
*1396 FILLER_0_23_278
*1397 FILLER_0_23_281
*1398 FILLER_0_23_289
*1399 FILLER_0_23_3
*1400 FILLER_0_23_307
*1401 FILLER_0_23_337
*1402 FILLER_0_23_349
*1403 FILLER_0_23_54
*1404 FILLER_0_23_57
*1405 FILLER_0_23_79
*1406 FILLER_0_24_112
*1407 FILLER_0_24_124
*1408 FILLER_0_24_136
*1409 FILLER_0_24_15
*1410 FILLER_0_24_155
*1411 FILLER_0_24_172
*1412 FILLER_0_24_184
*1413 FILLER_0_24_21
*1414 FILLER_0_24_213
*1415 FILLER_0_24_225
*1416 FILLER_0_24_236
*1417 FILLER_0_24_245
*1418 FILLER_0_24_251
*1419 FILLER_0_24_27
*1420 FILLER_0_24_270
*1421 FILLER_0_24_282
*1422 FILLER_0_24_296
*1423 FILLER_0_24_3
*1424 FILLER_0_24_34
*1425 FILLER_0_24_345
*1426 FILLER_0_24_46
*1427 FILLER_0_24_58
*1428 FILLER_0_24_66
*1429 FILLER_0_24_76
*1430 FILLER_0_24_82
*1431 FILLER_0_24_85
*1432 FILLER_0_24_95
*1433 FILLER_0_25_105
*1434 FILLER_0_25_111
*1435 FILLER_0_25_113
*1436 FILLER_0_25_123