*SPEF "ieee 1481-1999"
*DESIGN "tt_um_mv_mult_alrdelcr"
*DATE "11:11:11 Fri 11 11, 1111"
*VENDOR "OpenRCX"
*PROGRAM "Parallel Extraction"
*VERSION "1.0"
*DESIGN_FLOW "NAME_SCOPE LOCAL" "PIN_CAP NONE"
*DIVIDER /
*DELIMITER :
*BUS_DELIMITER []
*T_UNIT 1 NS
*C_UNIT 1 PF
*R_UNIT 1 OHM
*L_UNIT 1 HENRY

*NAME_MAP
*3 clk
*4 ena
*5 rst_n
*6 ui_in[0]
*7 ui_in[1]
*8 ui_in[2]
*9 ui_in[3]
*10 ui_in[4]
*11 ui_in[5]
*12 ui_in[6]
*13 ui_in[7]
*14 uio_in[0]
*15 uio_in[1]
*16 uio_in[2]
*17 uio_in[3]
*18 uio_in[4]
*19 uio_in[5]
*20 uio_in[6]
*21 uio_in[7]
*22 net5
*23 net6
*24 net7
*25 net8
*26 net9
*27 net10
*28 net11
*29 net12
*30 net13
*31 net14
*32 net15
*33 net16
*34 net17
*35 net18
*36 net19
*37 net20
*38 uo_out[0]
*39 uo_out[1]
*40 uo_out[2]
*41 uo_out[3]
*42 uo_out[4]
*43 uo_out[5]
*44 net21
*45 net22
*46 _000_
*47 _001_
*48 _002_
*49 _003_
*50 _004_
*51 _005_
*52 _006_
*53 _007_
*54 _008_
*55 _009_
*56 _010_
*57 _011_
*58 _012_
*59 _013_
*60 _014_
*61 _015_
*62 _016_
*63 _017_
*64 _018_
*65 _019_
*66 _020_
*67 _021_
*68 _022_
*69 _023_
*70 _024_
*71 _025_
*72 _026_
*73 _027_
*74 _028_
*75 _029_
*76 _030_
*77 _031_
*78 _032_
*79 _033_
*80 _034_
*81 _035_
*82 _036_
*83 _037_
*84 _038_
*85 _039_
*86 _040_
*87 _041_
*88 _042_
*89 _043_
*90 _044_
*91 _045_
*92 _046_
*93 _047_
*94 _048_
*95 _049_
*96 _050_
*97 _051_
*98 _052_
*99 _053_
*100 _054_
*101 _055_
*102 _056_
*103 _057_
*104 _058_
*105 _059_
*106 _060_
*107 clknet_0_clk
*108 clknet_1_0__leaf_clk
*109 clknet_1_1__leaf_clk
*110 net1
*111 net2
*112 net23
*113 net24
*114 net25
*115 net26
*116 net27
*117 net28
*118 net29
*119 net3
*120 net30
*121 net31
*122 net32
*123 net33
*124 net34
*125 net35
*126 net36
*127 net4
*128 vec1\.counter
*129 vec1\.matrix\[0\]\[0\]
*130 vec1\.matrix\[10\]\[0\]
*131 vec1\.matrix\[11\]\[0\]
*132 vec1\.matrix\[1\]\[0\]
*133 vec1\.matrix\[2\]\[0\]
*134 vec1\.matrix\[3\]\[0\]
*135 vec1\.matrix\[4\]\[0\]
*136 vec1\.matrix\[5\]\[0\]
*137 vec1\.matrix\[6\]\[0\]
*138 vec1\.matrix\[7\]\[0\]
*139 vec1\.matrix\[8\]\[0\]
*140 vec1\.matrix\[9\]\[0\]
*141 vec1\.old_state
*142 vec1\.old_state2
*143 vec1\.state
*144 vec1\.state2
*145 FILLER_0_0_109
*146 FILLER_0_0_113
*147 FILLER_0_0_125
*148 FILLER_0_0_137
*149 FILLER_0_0_141
*150 FILLER_0_0_15
*151 FILLER_0_0_153
*152 FILLER_0_0_165
*153 FILLER_0_0_169
*154 FILLER_0_0_181
*155 FILLER_0_0_193
*156 FILLER_0_0_197
*157 FILLER_0_0_209
*158 FILLER_0_0_221
*159 FILLER_0_0_225
*160 FILLER_0_0_237
*161 FILLER_0_0_249
*162 FILLER_0_0_253
*163 FILLER_0_0_265
*164 FILLER_0_0_27
*165 FILLER_0_0_277
*166 FILLER_0_0_281
*167 FILLER_0_0_29
*168 FILLER_0_0_293
*169 FILLER_0_0_3
*170 FILLER_0_0_305
*171 FILLER_0_0_309
*172 FILLER_0_0_321
*173 FILLER_0_0_333
*174 FILLER_0_0_337
*175 FILLER_0_0_349
*176 FILLER_0_0_41
*177 FILLER_0_0_53
*178 FILLER_0_0_57
*179 FILLER_0_0_69
*180 FILLER_0_0_81
*181 FILLER_0_0_85
*182 FILLER_0_0_97
*183 FILLER_0_10_109
*184 FILLER_0_10_121
*185 FILLER_0_10_133
*186 FILLER_0_10_139
*187 FILLER_0_10_141
*188 FILLER_0_10_15
*189 FILLER_0_10_153
*190 FILLER_0_10_165
*191 FILLER_0_10_177
*192 FILLER_0_10_189
*193 FILLER_0_10_195
*194 FILLER_0_10_197
*195 FILLER_0_10_209
*196 FILLER_0_10_221
*197 FILLER_0_10_233
*198 FILLER_0_10_245
*199 FILLER_0_10_251
*200 FILLER_0_10_253
*201 FILLER_0_10_265
*202 FILLER_0_10_27
*203 FILLER_0_10_277
*204 FILLER_0_10_289
*205 FILLER_0_10_29
*206 FILLER_0_10_3
*207 FILLER_0_10_301
*208 FILLER_0_10_307
*209 FILLER_0_10_309
*210 FILLER_0_10_321
*211 FILLER_0_10_333
*212 FILLER_0_10_345
*213 FILLER_0_10_41
*214 FILLER_0_10_53
*215 FILLER_0_10_65
*216 FILLER_0_10_77
*217 FILLER_0_10_83
*218 FILLER_0_10_85
*219 FILLER_0_10_97
*220 FILLER_0_11_105
*221 FILLER_0_11_111
*222 FILLER_0_11_113
*223 FILLER_0_11_125
*224 FILLER_0_11_137
*225 FILLER_0_11_149
*226 FILLER_0_11_15
*227 FILLER_0_11_161
*228 FILLER_0_11_167
*229 FILLER_0_11_169
*230 FILLER_0_11_181
*231 FILLER_0_11_193
*232 FILLER_0_11_205
*233 FILLER_0_11_217
*234 FILLER_0_11_223
*235 FILLER_0_11_225
*236 FILLER_0_11_237
*237 FILLER_0_11_249
*238 FILLER_0_11_261
*239 FILLER_0_11_27
*240 FILLER_0_11_273
*241 FILLER_0_11_279
*242 FILLER_0_11_281
*243 FILLER_0_11_293
*244 FILLER_0_11_3
*245 FILLER_0_11_305
*246 FILLER_0_11_317
*247 FILLER_0_11_329
*248 FILLER_0_11_335
*249 FILLER_0_11_337
*250 FILLER_0_11_349
*251 FILLER_0_11_39
*252 FILLER_0_11_51
*253 FILLER_0_11_55
*254 FILLER_0_11_57
*255 FILLER_0_11_69
*256 FILLER_0_11_81
*257 FILLER_0_11_93
*258 FILLER_0_12_109
*259 FILLER_0_12_121
*260 FILLER_0_12_133
*261 FILLER_0_12_139
*262 FILLER_0_12_141
*263 FILLER_0_12_15
*264 FILLER_0_12_153
*265 FILLER_0_12_165
*266 FILLER_0_12_177
*267 FILLER_0_12_189
*268 FILLER_0_12_195
*269 FILLER_0_12_197
*270 FILLER_0_12_209
*271 FILLER_0_12_221
*272 FILLER_0_12_233
*273 FILLER_0_12_245
*274 FILLER_0_12_251
*275 FILLER_0_12_253
*276 FILLER_0_12_265
*277 FILLER_0_12_27
*278 FILLER_0_12_277
*279 FILLER_0_12_289
*280 FILLER_0_12_29
*281 FILLER_0_12_3
*282 FILLER_0_12_301
*283 FILLER_0_12_307
*284 FILLER_0_12_309
*285 FILLER_0_12_321
*286 FILLER_0_12_333
*287 FILLER_0_12_345
*288 FILLER_0_12_41
*289 FILLER_0_12_53
*290 FILLER_0_12_65
*291 FILLER_0_12_77
*292 FILLER_0_12_83
*293 FILLER_0_12_85
*294 FILLER_0_12_97
*295 FILLER_0_13_105
*296 FILLER_0_13_111
*297 FILLER_0_13_113
*298 FILLER_0_13_125
*299 FILLER_0_13_137
*300 FILLER_0_13_149
*301 FILLER_0_13_15
*302 FILLER_0_13_161
*303 FILLER_0_13_167
*304 FILLER_0_13_169
*305 FILLER_0_13_181
*306 FILLER_0_13_193
*307 FILLER_0_13_205
*308 FILLER_0_13_217
*309 FILLER_0_13_223
*310 FILLER_0_13_225
*311 FILLER_0_13_237
*312 FILLER_0_13_249
*313 FILLER_0_13_261
*314 FILLER_0_13_27
*315 FILLER_0_13_273
*316 FILLER_0_13_279
*317 FILLER_0_13_281
*318 FILLER_0_13_293
*319 FILLER_0_13_3
*320 FILLER_0_13_305
*321 FILLER_0_13_317
*322 FILLER_0_13_329
*323 FILLER_0_13_335
*324 FILLER_0_13_337
*325 FILLER_0_13_349
*326 FILLER_0_13_39
*327 FILLER_0_13_51
*328 FILLER_0_13_55
*329 FILLER_0_13_57
*330 FILLER_0_13_69
*331 FILLER_0_13_81
*332 FILLER_0_13_93
*333 FILLER_0_14_109
*334 FILLER_0_14_121
*335 FILLER_0_14_133
*336 FILLER_0_14_139
*337 FILLER_0_14_141
*338 FILLER_0_14_15
*339 FILLER_0_14_153
*340 FILLER_0_14_165
*341 FILLER_0_14_177
*342 FILLER_0_14_189
*343 FILLER_0_14_195
*344 FILLER_0_14_197
*345 FILLER_0_14_209
*346 FILLER_0_14_221
*347 FILLER_0_14_233
*348 FILLER_0_14_245
*349 FILLER_0_14_251
*350 FILLER_0_14_253
*351 FILLER_0_14_265
*352 FILLER_0_14_27
*353 FILLER_0_14_277
*354 FILLER_0_14_289
*355 FILLER_0_14_29
*356 FILLER_0_14_3
*357 FILLER_0_14_301
*358 FILLER_0_14_307
*359 FILLER_0_14_309
*360 FILLER_0_14_321
*361 FILLER_0_14_333
*362 FILLER_0_14_345
*363 FILLER_0_14_41
*364 FILLER_0_14_53
*365 FILLER_0_14_65
*366 FILLER_0_14_77
*367 FILLER_0_14_83
*368 FILLER_0_14_85
*369 FILLER_0_14_97
*370 FILLER_0_15_105
*371 FILLER_0_15_111
*372 FILLER_0_15_113
*373 FILLER_0_15_125
*374 FILLER_0_15_137
*375 FILLER_0_15_149
*376 FILLER_0_15_15
*377 FILLER_0_15_161
*378 FILLER_0_15_167
*379 FILLER_0_15_169
*380 FILLER_0_15_181
*381 FILLER_0_15_193
*382 FILLER_0_15_205
*383 FILLER_0_15_217
*384 FILLER_0_15_223
*385 FILLER_0_15_225
*386 FILLER_0_15_237
*387 FILLER_0_15_249
*388 FILLER_0_15_261
*389 FILLER_0_15_27
*390 FILLER_0_15_273
*391 FILLER_0_15_279
*392 FILLER_0_15_281
*393 FILLER_0_15_293
*394 FILLER_0_15_3
*395 FILLER_0_15_305
*396 FILLER_0_15_317
*397 FILLER_0_15_329
*398 FILLER_0_15_335
*399 FILLER_0_15_337
*400 FILLER_0_15_349
*401 FILLER_0_15_39
*402 FILLER_0_15_51
*403 FILLER_0_15_55
*404 FILLER_0_15_57
*405 FILLER_0_15_69
*406 FILLER_0_15_81
*407 FILLER_0_15_93
*408 FILLER_0_16_109
*409 FILLER_0_16_121
*410 FILLER_0_16_133
*411 FILLER_0_16_139
*412 FILLER_0_16_141
*413 FILLER_0_16_15
*414 FILLER_0_16_153
*415 FILLER_0_16_165
*416 FILLER_0_16_177
*417 FILLER_0_16_189
*418 FILLER_0_16_195
*419 FILLER_0_16_197
*420 FILLER_0_16_209
*421 FILLER_0_16_221
*422 FILLER_0_16_233
*423 FILLER_0_16_245
*424 FILLER_0_16_251
*425 FILLER_0_16_253
*426 FILLER_0_16_265
*427 FILLER_0_16_27
*428 FILLER_0_16_277
*429 FILLER_0_16_289
*430 FILLER_0_16_29
*431 FILLER_0_16_3
*432 FILLER_0_16_301
*433 FILLER_0_16_307
*434 FILLER_0_16_309
*435 FILLER_0_16_321
*436 FILLER_0_16_333
*437 FILLER_0_16_345
*438 FILLER_0_16_41
*439 FILLER_0_16_53
*440 FILLER_0_16_65
*441 FILLER_0_16_77
*442 FILLER_0_16_83
*443 FILLER_0_16_85
*444 FILLER_0_16_97
*445 FILLER_0_17_105
*446 FILLER_0_17_111
*447 FILLER_0_17_113
*448 FILLER_0_17_125
*449 FILLER_0_17_137
*450 FILLER_0_17_149
*451 FILLER_0_17_15
*452 FILLER_0_17_161
*453 FILLER_0_17_167
*454 FILLER_0_17_169
*455 FILLER_0_17_181
*456 FILLER_0_17_193
*457 FILLER_0_17_205
*458 FILLER_0_17_217
*459 FILLER_0_17_223
*460 FILLER_0_17_225
*461 FILLER_0_17_237
*462 FILLER_0_17_249
*463 FILLER_0_17_261
*464 FILLER_0_17_27
*465 FILLER_0_17_273
*466 FILLER_0_17_279
*467 FILLER_0_17_281
*468 FILLER_0_17_293
*469 FILLER_0_17_3
*470 FILLER_0_17_305
*471 FILLER_0_17_317
*472 FILLER_0_17_329
*473 FILLER_0_17_335
*474 FILLER_0_17_337
*475 FILLER_0_17_349
*476 FILLER_0_17_39
*477 FILLER_0_17_51
*478 FILLER_0_17_55
*479 FILLER_0_17_57
*480 FILLER_0_17_69
*481 FILLER_0_17_81
*482 FILLER_0_17_93
*483 FILLER_0_18_109
*484 FILLER_0_18_121
*485 FILLER_0_18_133
*486 FILLER_0_18_139
*487 FILLER_0_18_141
*488 FILLER_0_18_15
*489 FILLER_0_18_153
*490 FILLER_0_18_165
*491 FILLER_0_18_177
*492 FILLER_0_18_189
*493 FILLER_0_18_195
*494 FILLER_0_18_197
*495 FILLER_0_18_209
*496 FILLER_0_18_221
*497 FILLER_0_18_233
*498 FILLER_0_18_245
*499 FILLER_0_18_251
*500 FILLER_0_18_253
*501 FILLER_0_18_265
*502 FILLER_0_18_27
*503 FILLER_0_18_277
*504 FILLER_0_18_289
*505 FILLER_0_18_29
*506 FILLER_0_18_3
*507 FILLER_0_18_301
*508 FILLER_0_18_307
*509 FILLER_0_18_309
*510 FILLER_0_18_321
*511 FILLER_0_18_333
*512 FILLER_0_18_345
*513 FILLER_0_18_41
*514 FILLER_0_18_53
*515 FILLER_0_18_65
*516 FILLER_0_18_77
*517 FILLER_0_18_83
*518 FILLER_0_18_85
*519 FILLER_0_18_97
*520 FILLER_0_19_105
*521 FILLER_0_19_111
*522 FILLER_0_19_113
*523 FILLER_0_19_125
*524 FILLER_0_19_137
*525 FILLER_0_19_149
*526 FILLER_0_19_15
*527 FILLER_0_19_161
*528 FILLER_0_19_167
*529 FILLER_0_19_169
*530 FILLER_0_19_181
*531 FILLER_0_19_193
*532 FILLER_0_19_205
*533 FILLER_0_19_217
*534 FILLER_0_19_223
*535 FILLER_0_19_225
*536 FILLER_0_19_237
*537 FILLER_0_19_249
*538 FILLER_0_19_261
*539 FILLER_0_19_27
*540 FILLER_0_19_273
*541 FILLER_0_19_279
*542 FILLER_0_19_281
*543 FILLER_0_19_293
*544 FILLER_0_19_3
*545 FILLER_0_19_305
*546 FILLER_0_19_317
*547 FILLER_0_19_329
*548 FILLER_0_19_335
*549 FILLER_0_19_337
*550 FILLER_0_19_349
*551 FILLER_0_19_39
*552 FILLER_0_19_51
*553 FILLER_0_19_55
*554 FILLER_0_19_57
*555 FILLER_0_19_69
*556 FILLER_0_19_81
*557 FILLER_0_19_93
*558 FILLER_0_1_105
*559 FILLER_0_1_111
*560 FILLER_0_1_113
*561 FILLER_0_1_125
*562 FILLER_0_1_137
*563 FILLER_0_1_149
*564 FILLER_0_1_15
*565 FILLER_0_1_161
*566 FILLER_0_1_167
*567 FILLER_0_1_169
*568 FILLER_0_1_181
*569 FILLER_0_1_193
*570 FILLER_0_1_205
*571 FILLER_0_1_217
*572 FILLER_0_1_223
*573 FILLER_0_1_225
*574 FILLER_0_1_237
*575 FILLER_0_1_249
*576 FILLER_0_1_261
*577 FILLER_0_1_27
*578 FILLER_0_1_273
*579 FILLER_0_1_279
*580 FILLER_0_1_281
*581 FILLER_0_1_293
*582 FILLER_0_1_3
*583 FILLER_0_1_305
*584 FILLER_0_1_317
*585 FILLER_0_1_329
*586 FILLER_0_1_335
*587 FILLER_0_1_337
*588 FILLER_0_1_349
*589 FILLER_0_1_39
*590 FILLER_0_1_51
*591 FILLER_0_1_55
*592 FILLER_0_1_57
*593 FILLER_0_1_69
*594 FILLER_0_1_81
*595 FILLER_0_1_93
*596 FILLER_0_20_109
*597 FILLER_0_20_121
*598 FILLER_0_20_133
*599 FILLER_0_20_139
*600 FILLER_0_20_141
*601 FILLER_0_20_15
*602 FILLER_0_20_153
*603 FILLER_0_20_165
*604 FILLER_0_20_177
*605 FILLER_0_20_189
*606 FILLER_0_20_195
*607 FILLER_0_20_197
*608 FILLER_0_20_209
*609 FILLER_0_20_221
*610 FILLER_0_20_233
*611 FILLER_0_20_245
*612 FILLER_0_20_251
*613 FILLER_0_20_253
*614 FILLER_0_20_265
*615 FILLER_0_20_27
*616 FILLER_0_20_277
*617 FILLER_0_20_289
*618 FILLER_0_20_29
*619 FILLER_0_20_3
*620 FILLER_0_20_301
*621 FILLER_0_20_307
*622 FILLER_0_20_309
*623 FILLER_0_20_321
*624 FILLER_0_20_333
*625 FILLER_0_20_345
*626 FILLER_0_20_41
*627 FILLER_0_20_53
*628 FILLER_0_20_65
*629 FILLER_0_20_77
*630 FILLER_0_20_83
*631 FILLER_0_20_85
*632 FILLER_0_20_97
*633 FILLER_0_21_105
*634 FILLER_0_21_111
*635 FILLER_0_21_113
*636 FILLER_0_21_125
*637 FILLER_0_21_137
*638 FILLER_0_21_149
*639 FILLER_0_21_15
*640 FILLER_0_21_161
*641 FILLER_0_21_167
*642 FILLER_0_21_169
*643 FILLER_0_21_181
*644 FILLER_0_21_193
*645 FILLER_0_21_205
*646 FILLER_0_21_217
*647 FILLER_0_21_223
*648 FILLER_0_21_225
*649 FILLER_0_21_237
*650 FILLER_0_21_249
*651 FILLER_0_21_261
*652 FILLER_0_21_27
*653 FILLER_0_21_273
*654 FILLER_0_21_279
*655 FILLER_0_21_281
*656 FILLER_0_21_293
*657 FILLER_0_21_3
*658 FILLER_0_21_305
*659 FILLER_0_21_317
*660 FILLER_0_21_329
*661 FILLER_0_21_335
*662 FILLER_0_21_337
*663 FILLER_0_21_349
*664 FILLER_0_21_39
*665 FILLER_0_21_51
*666 FILLER_0_21_55
*667 FILLER_0_21_57
*668 FILLER_0_21_69
*669 FILLER_0_21_81
*670 FILLER_0_21_93
*671 FILLER_0_22_109
*672 FILLER_0_22_121
*673 FILLER_0_22_133
*674 FILLER_0_22_139
*675 FILLER_0_22_141
*676 FILLER_0_22_15
*677 FILLER_0_22_153
*678 FILLER_0_22_165
*679 FILLER_0_22_177
*680 FILLER_0_22_189
*681 FILLER_0_22_195
*682 FILLER_0_22_197
*683 FILLER_0_22_209
*684 FILLER_0_22_221
*685 FILLER_0_22_233
*686 FILLER_0_22_245
*687 FILLER_0_22_251
*688 FILLER_0_22_253
*689 FILLER_0_22_265
*690 FILLER_0_22_27
*691 FILLER_0_22_277
*692 FILLER_0_22_289
*693 FILLER_0_22_29
*694 FILLER_0_22_3
*695 FILLER_0_22_301
*696 FILLER_0_22_307
*697 FILLER_0_22_309
*698 FILLER_0_22_321
*699 FILLER_0_22_333
*700 FILLER_0_22_345
*701 FILLER_0_22_41
*702 FILLER_0_22_53
*703 FILLER_0_22_65
*704 FILLER_0_22_77
*705 FILLER_0_22_83
*706 FILLER_0_22_85
*707 FILLER_0_22_97
*708 FILLER_0_23_105
*709 FILLER_0_23_111
*710 FILLER_0_23_113
*711 FILLER_0_23_125
*712 FILLER_0_23_137
*713 FILLER_0_23_149
*714 FILLER_0_23_15
*715 FILLER_0_23_161
*716 FILLER_0_23_167
*717 FILLER_0_23_169
*718 FILLER_0_23_181
*719 FILLER_0_23_193
*720 FILLER_0_23_205
*721 FILLER_0_23_217
*722 FILLER_0_23_223
*723 FILLER_0_23_225
*724 FILLER_0_23_237
*725 FILLER_0_23_249
*726 FILLER_0_23_261
*727 FILLER_0_23_27
*728 FILLER_0_23_273
*729 FILLER_0_23_279
*730 FILLER_0_23_281
*731 FILLER_0_23_293
*732 FILLER_0_23_3
*733 FILLER_0_23_305
*734 FILLER_0_23_317
*735 FILLER_0_23_329
*736 FILLER_0_23_335
*737 FILLER_0_23_337
*738 FILLER_0_23_349
*739 FILLER_0_23_39
*740 FILLER_0_23_51
*741 FILLER_0_23_55
*742 FILLER_0_23_57
*743 FILLER_0_23_69
*744 FILLER_0_23_81
*745 FILLER_0_23_93
*746 FILLER_0_24_109
*747 FILLER_0_24_121
*748 FILLER_0_24_133
*749 FILLER_0_24_139
*750 FILLER_0_24_141
*751 FILLER_0_24_15
*752 FILLER_0_24_153
*753 FILLER_0_24_165
*754 FILLER_0_24_177
*755 FILLER_0_24_189
*756 FILLER_0_24_195
*757 FILLER_0_24_197
*758 FILLER_0_24_209
*759 FILLER_0_24_221
*760 FILLER_0_24_233
*761 FILLER_0_24_245
*762 FILLER_0_24_251
*763 FILLER_0_24_253
*764 FILLER_0_24_265
*765 FILLER_0_24_27
*766 FILLER_0_24_277
*767 FILLER_0_24_289
*768 FILLER_0_24_29
*769 FILLER_0_24_3
*770 FILLER_0_24_301
*771 FILLER_0_24_307
*772 FILLER_0_24_309
*773 FILLER_0_24_321
*774 FILLER_0_24_333
*775 FILLER_0_24_345
*776 FILLER_0_24_41
*777 FILLER_0_24_53
*778 FILLER_0_24_65
*779 FILLER_0_24_77
*780 FILLER_0_24_83
*781 FILLER_0_24_85
*782 FILLER_0_24_97
*783 FILLER_0_25_105
*784 FILLER_0_25_111
*785 FILLER_0_25_113
*786 FILLER_0_25_125
*787 FILLER_0_25_137
*788 FILLER_0_25_149
*789 FILLER_0_25_15
*790 FILLER_0_25_161
*791 FILLER_0_25_167
*792 FILLER_0_25_169
*793 FILLER_0_25_181
*794 FILLER_0_25_193
*795 FILLER_0_25_205
*796 FILLER_0_25_217
*797 FILLER_0_25_223
*798 FILLER_0_25_225
*799 FILLER_0_25_237
*800 FILLER_0_25_249
*801 FILLER_0_25_261
*802 FILLER_0_25_27
*803 FILLER_0_25_273
*804 FILLER_0_25_279
*805 FILLER_0_25_281
*806 FILLER_0_25_293
*807 FILLER_0_25_3
*808 FILLER_0_25_305
*809 FILLER_0_25_317
*810 FILLER_0_25_329
*811 FILLER_0_25_335
*812 FILLER_0_25_337
*813 FILLER_0_25_349
*814 FILLER_0_25_39
*815 FILLER_0_25_51
*816 FILLER_0_25_55
*817 FILLER_0_25_57
*818 FILLER_0_25_69
*819 FILLER_0_25_81
*820 FILLER_0_25_93
*821 FILLER_0_26_109
*822 FILLER_0_26_121
*823 FILLER_0_26_133
*824 FILLER_0_26_139
*825 FILLER_0_26_141
*826 FILLER_0_26_15
*827 FILLER_0_26_153
*828 FILLER_0_26_165
*829 FILLER_0_26_177
*830 FILLER_0_26_189
*831 FILLER_0_26_195
*832 FILLER_0_26_197
*833 FILLER_0_26_209
*834 FILLER_0_26_221
*835 FILLER_0_26_233
*836 FILLER_0_26_245
*837 FILLER_0_26_251
*838 FILLER_0_26_253
*839 FILLER_0_26_265
*840 FILLER_0_26_27
*841 FILLER_0_26_277
*842 FILLER_0_26_289
*843 FILLER_0_26_29
*844 FILLER_0_26_3
*845 FILLER_0_26_301
*846 FILLER_0_26_307
*847 FILLER_0_26_309
*848 FILLER_0_26_321
*849 FILLER_0_26_333
*850 FILLER_0_26_345
*851 FILLER_0_26_41
*852 FILLER_0_26_53
*853 FILLER_0_26_65
*854 FILLER_0_26_77
*855 FILLER_0_26_83
*856 FILLER_0_26_85
*857 FILLER_0_26_97
*858 FILLER_0_27_105
*859 FILLER_0_27_111
*860 FILLER_0_27_113
*861 FILLER_0_27_125
*862 FILLER_0_27_137
*863 FILLER_0_27_149
*864 FILLER_0_27_15
*865 FILLER_0_27_161
*866 FILLER_0_27_167
*867 FILLER_0_27_169
*868 FILLER_0_27_181
*869 FILLER_0_27_193
*870 FILLER_0_27_205
*871 FILLER_0_27_217
*872 FILLER_0_27_223
*873 FILLER_0_27_225
*874 FILLER_0_27_237
*875 FILLER_0_27_249
*876 FILLER_0_27_261
*877 FILLER_0_27_27
*878 FILLER_0_27_273
*879 FILLER_0_27_279
*880 FILLER_0_27_281
*881 FILLER_0_27_293
*882 FILLER_0_27_3
*883 FILLER_0_27_305
*884 FILLER_0_27_317
*885 FILLER_0_27_329
*886 FILLER_0_27_335
*887 FILLER_0_27_337
*888 FILLER_0_27_349
*889 FILLER_0_27_39
*890 FILLER_0_27_51
*891 FILLER_0_27_55
*892 FILLER_0_27_57
*893 FILLER_0_27_69
*894 FILLER_0_27_81
*895 FILLER_0_27_93
*896 FILLER_0_28_109
*897 FILLER_0_28_121
*898 FILLER_0_28_133
*899 FILLER_0_28_139
*900 FILLER_0_28_141
*901 FILLER_0_28_15
*902 FILLER_0_28_153
*903 FILLER_0_28_165
*904 FILLER_0_28_177
*905 FILLER_0_28_189
*906 FILLER_0_28_195
*907 FILLER_0_28_197
*908 FILLER_0_28_209
*909 FILLER_0_28_221
*910 FILLER_0_28_233
*911 FILLER_0_28_245
*912 FILLER_0_28_251
*913 FILLER_0_28_253
*914 FILLER_0_28_265
*915 FILLER_0_28_27
*916 FILLER_0_28_277
*917 FILLER_0_28_289
*918 FILLER_0_28_29
*919 FILLER_0_28_3
*920 FILLER_0_28_301
*921 FILLER_0_28_307
*922 FILLER_0_28_309
*923 FILLER_0_28_321
*924 FILLER_0_28_333
*925 FILLER_0_28_345
*926 FILLER_0_28_41
*927 FILLER_0_28_53
*928 FILLER_0_28_65
*929 FILLER_0_28_77
*930 FILLER_0_28_83
*931 FILLER_0_28_85
*932 FILLER_0_28_97
*933 FILLER_0_29_105
*934 FILLER_0_29_111
*935 FILLER_0_29_113
*936 FILLER_0_29_125
*937 FILLER_0_29_137
*938 FILLER_0_29_149
*939 FILLER_0_29_15
*940 FILLER_0_29_161
*941 FILLER_0_29_167
*942 FILLER_0_29_169
*943 FILLER_0_29_181
*944 FILLER_0_29_193
*945 FILLER_0_29_205
*946 FILLER_0_29_217
*947 FILLER_0_29_223
*948 FILLER_0_29_225
*949 FILLER_0_29_237
*950 FILLER_0_29_249
*951 FILLER_0_29_261
*952 FILLER_0_29_27
*953 FILLER_0_29_273
*954 FILLER_0_29_279
*955 FILLER_0_29_281
*956 FILLER_0_29_293
*957 FILLER_0_29_3
*958 FILLER_0_29_305
*959 FILLER_0_29_317
*960 FILLER_0_29_329
*961 FILLER_0_29_335
*962 FILLER_0_29_337
*963 FILLER_0_29_349
*964 FILLER_0_29_39
*965 FILLER_0_29_51
*966 FILLER_0_29_55
*967 FILLER_0_29_57
*968 FILLER_0_29_69
*969 FILLER_0_29_81
*970 FILLER_0_29_93
*971 FILLER_0_2_109
*972 FILLER_0_2_121
*973 FILLER_0_2_133
*974 FILLER_0_2_139
*975 FILLER_0_2_141
*976 FILLER_0_2_15
*977 FILLER_0_2_153
*978 FILLER_0_2_165
*979 FILLER_0_2_177
*980 FILLER_0_2_189
*981 FILLER_0_2_195
*982 FILLER_0_2_197
*983 FILLER_0_2_209
*984 FILLER_0_2_221
*985 FILLER_0_2_233
*986 FILLER_0_2_245
*987 FILLER_0_2_251
*988 FILLER_0_2_253
*989 FILLER_0_2_265
*990 FILLER_0_2_27
*991 FILLER_0_2_277
*992 FILLER_0_2_289
*993 FILLER_0_2_29
*994 FILLER_0_2_3
*995 FILLER_0_2_301
*996 FILLER_0_2_307
*997 FILLER_0_2_309
*998 FILLER_0_2_321
*999 FILLER_0_2_333
*1000 FILLER_0_2_345
*1001 FILLER_0_2_41
*1002 FILLER_0_2_53
*1003 FILLER_0_2_65
*1004 FILLER_0_2_77
*1005 FILLER_0_2_83
*1006 FILLER_0_2_85
*1007 FILLER_0_2_97
*1008 FILLER_0_30_109
*1009 FILLER_0_30_121
*1010 FILLER_0_30_133
*1011 FILLER_0_30_139
*1012 FILLER_0_30_141
*1013 FILLER_0_30_15
*1014 FILLER_0_30_153
*1015 FILLER_0_30_165
*1016 FILLER_0_30_177
*1017 FILLER_0_30_189
*1018 FILLER_0_30_195
*1019 FILLER_0_30_197
*1020 FILLER_0_30_209
*1021 FILLER_0_30_221
*1022 FILLER_0_30_233
*1023 FILLER_0_30_245
*1024 FILLER_0_30_251
*1025 FILLER_0_30_253
*1026 FILLER_0_30_265
*1027 FILLER_0_30_27
*1028 FILLER_0_30_277
*1029 FILLER_0_30_289
*1030 FILLER_0_30_29
*1031 FILLER_0_30_3
*1032 FILLER_0_30_301
*1033 FILLER_0_30_307
*1034 FILLER_0_30_309
*1035 FILLER_0_30_321
*1036 FILLER_0_30_333
*1037 FILLER_0_30_345
*1038 FILLER_0_30_41
*1039 FILLER_0_30_53
*1040 FILLER_0_30_65
*1041 FILLER_0_30_77
*1042 FILLER_0_30_83
*1043 FILLER_0_30_85
*1044 FILLER_0_30_97
*1045 FILLER_0_31_105
*1046 FILLER_0_31_111
*1047 FILLER_0_31_113
*1048 FILLER_0_31_125
*1049 FILLER_0_31_137
*1050 FILLER_0_31_149
*1051 FILLER_0_31_15
*1052 FILLER_0_31_153
*1053 FILLER_0_31_157
*1054 FILLER_0_31_165
*1055 FILLER_0_31_169
*1056 FILLER_0_31_181
*1057 FILLER_0_31_205
*1058 FILLER_0_31_217
*1059 FILLER_0_31_223
*1060 FILLER_0_31_225
*1061 FILLER_0_31_237
*1062 FILLER_0_31_249
*1063 FILLER_0_31_261
*1064 FILLER_0_31_27
*1065 FILLER_0_31_273
*1066 FILLER_0_31_277
*1067 FILLER_0_31_281
*1068 FILLER_0_31_293
*1069 FILLER_0_31_3
*1070 FILLER_0_31_305
*1071 FILLER_0_31_317
*1072 FILLER_0_31_329
*1073 FILLER_0_31_335
*1074 FILLER_0_31_337
*1075 FILLER_0_31_349
*1076 FILLER_0_31_39
*1077 FILLER_0_31_51
*1078 FILLER_0_31_55
*1079 FILLER_0_31_57
*1080 FILLER_0_31_69
*1081 FILLER_0_31_81
*1082 FILLER_0_31_93
*1083 FILLER_0_32_109
*1084 FILLER_0_32_121
*1085 FILLER_0_32_133
*1086 FILLER_0_32_139
*1087 FILLER_0_32_141
*1088 FILLER_0_32_15
*1089 FILLER_0_32_183
*1090 FILLER_0_32_195
*1091 FILLER_0_32_213
*1092 FILLER_0_32_238
*1093 FILLER_0_32_250
*1094 FILLER_0_32_253
*1095 FILLER_0_32_261
*1096 FILLER_0_32_266
*1097 FILLER_0_32_27
*1098 FILLER_0_32_29
*1099 FILLER_0_32_295
*1100 FILLER_0_32_3
*1101 FILLER_0_32_307
*1102 FILLER_0_32_309
*1103 FILLER_0_32_321
*1104 FILLER_0_32_333
*1105 FILLER_0_32_345
*1106 FILLER_0_32_41
*1107 FILLER_0_32_53
*1108 FILLER_0_32_65
*1109 FILLER_0_32_77
*1110 FILLER_0_32_83
*1111 FILLER_0_32_85
*1112 FILLER_0_32_97
*1113 FILLER_0_33_105
*1114 FILLER_0_33_111
*1115 FILLER_0_33_113
*1116 FILLER_0_33_125
*1117 FILLER_0_33_137
*1118 FILLER_0_33_145
*1119 FILLER_0_33_15
*1120 FILLER_0_33_211
*1121 FILLER_0_33_249
*1122 FILLER_0_33_257
*1123 FILLER_0_33_27
*1124 FILLER_0_33_293
*1125 FILLER_0_33_3
*1126 FILLER_0_33_305
*1127 FILLER_0_33_317
*1128 FILLER_0_33_329
*1129 FILLER_0_33_335
*1130 FILLER_0_33_337
*1131 FILLER_0_33_349
*1132 FILLER_0_33_39
*1133 FILLER_0_33_51
*1134 FILLER_0_33_55
*1135 FILLER_0_33_57
*1136 FILLER_0_33_69
*1137 FILLER_0_33_81
*1138 FILLER_0_33_93
*1139 FILLER_0_34_109
*1140 FILLER_0_34_121
*1141 FILLER_0_34_133
*1142 FILLER_0_34_139
*1143 FILLER_0_34_141
*1144 FILLER_0_34_15
*1145 FILLER_0_34_170
*1146 FILLER_0_34_191
*1147 FILLER_0_34_197
*1148 FILLER_0_34_214
*1149 FILLER_0_34_229
*1150 FILLER_0_34_251
*1151 FILLER_0_34_253
*1152 FILLER_0_34_261
*1153 FILLER_0_34_27
*1154 FILLER_0_34_29
*1155 FILLER_0_34_290
*1156 FILLER_0_34_294
*1157 FILLER_0_34_3
*1158 FILLER_0_34_325
*1159 FILLER_0_34_337
*1160 FILLER_0_34_349
*1161 FILLER_0_34_41
*1162 FILLER_0_34_53
*1163 FILLER_0_34_65
*1164 FILLER_0_34_77
*1165 FILLER_0_34_83
*1166 FILLER_0_34_85
*1167 FILLER_0_34_97
*1168 FILLER_0_35_105
*1169 FILLER_0_35_111
*1170 FILLER_0_35_113
*1171 FILLER_0_35_125
*1172 FILLER_0_35_137
*1173 FILLER_0_35_149
*1174 FILLER_0_35_15
*1175 FILLER_0_35_153
*1176 FILLER_0_35_166
*1177 FILLER_0_35_169
*1178 FILLER_0_35_179
*1179 FILLER_0_35_191
*1180 FILLER_0_35_206
*1181 FILLER_0_35_223
*1182 FILLER_0_35_248
*1183 FILLER_0_35_264
*1184 FILLER_0_35_27
*1185 FILLER_0_35_279
*1186 FILLER_0_35_3
*1187 FILLER_0_35_301
*1188 FILLER_0_35_309
*1189 FILLER_0_35_318
*1190 FILLER_0_35_330
*1191 FILLER_0_35_337
*1192 FILLER_0_35_349
*1193 FILLER_0_35_39
*1194 FILLER_0_35_51
*1195 FILLER_0_35_55
*1196 FILLER_0_35_57
*1197 FILLER_0_35_69
*1198 FILLER_0_35_81
*1199 FILLER_0_35_93
*1200 FILLER_0_36_109
*1201 FILLER_0_36_121
*1202 FILLER_0_36_133
*1203 FILLER_0_36_139
*1204 FILLER_0_36_141
*1205 FILLER_0_36_15
*1206 FILLER_0_36_176
*1207 FILLER_0_36_200
*1208 FILLER_0_36_223
*1209 FILLER_0_36_241
*1210 FILLER_0_36_269
*1211 FILLER_0_36_27
*1212 FILLER_0_36_289
*1213 FILLER_0_36_29
*1214 FILLER_0_36_3
*1215 FILLER_0_36_325
*1216 FILLER_0_36_337
*1217 FILLER_0_36_349
*1218 FILLER_0_36_41
*1219 FILLER_0_36_53
*1220 FILLER_0_36_65
*1221 FILLER_0_36_77
*1222 FILLER_0_36_83
*1223 FILLER_0_36_85
*1224 FILLER_0_36_97
*1225 FILLER_0_37_105
*1226 FILLER_0_37_111
*1227 FILLER_0_37_113
*1228 FILLER_0_37_125
*1229 FILLER_0_37_137
*1230 FILLER_0_37_145
*1231 FILLER_0_37_15
*1232 FILLER_0_37_166
*1233 FILLER_0_37_188
*1234 FILLER_0_37_208
*1235 FILLER_0_37_220
*1236 FILLER_0_37_262
*1237 FILLER_0_37_27
*1238 FILLER_0_37_274
*1239 FILLER_0_37_3
*1240 FILLER_0_37_306
*1241 FILLER_0_37_330
*1242 FILLER_0_37_337
*1243 FILLER_0_37_349
*1244 FILLER_0_37_39
*1245 FILLER_0_37_51
*1246 FILLER_0_37_55
*1247 FILLER_0_37_57
*1248 FILLER_0_37_69
*1249 FILLER_0_37_81
*1250 FILLER_0_37_93
*1251 FILLER_0_38_104
*1252 FILLER_0_38_110
*1253 FILLER_0_38_116
*1254 FILLER_0_38_122
*1255 FILLER_0_38_128
*1256 FILLER_0_38_134
*1257 FILLER_0_38_141
*1258 FILLER_0_38_146
*1259 FILLER_0_38_15
*1260 FILLER_0_38_183
*1261 FILLER_0_38_195
*1262 FILLER_0_38_197
*1263 FILLER_0_38_209
*1264 FILLER_0_38_221
*1265 FILLER_0_38_225
*1266 FILLER_0_38_237
*1267 FILLER_0_38_249
*1268 FILLER_0_38_269
*1269 FILLER_0_38_27
*1270 FILLER_0_38_277
*1271 FILLER_0_38_285
*1272 FILLER_0_38_29
*1273 FILLER_0_38_291
*1274 FILLER_0_38_3
*1275 FILLER_0_38_309
*1276 FILLER_0_38_318
*1277 FILLER_0_38_330
*1278 FILLER_0_38_337
*1279 FILLER_0_38_349
*1280 FILLER_0_38_41
*1281 FILLER_0_38_53
*1282 FILLER_0_38_57
*1283 FILLER_0_38_68
*1284 FILLER_0_38_74
*1285 FILLER_0_38_80
*1286 FILLER_0_38_88
*1287 FILLER_0_38_92
*1288 FILLER_0_38_98
*1289 FILLER_0_3_105
*1290 FILLER_0_3_111
*1291 FILLER_0_3_113
*1292 FILLER_0_3_125
*1293 FILLER_0_3_137
*1294 FILLER_0_3_149
*1295 FILLER_0_3_15
*1296 FILLER_0_3_161
*1297 FILLER_0_3_167
*1298 FILLER_0_3_169
*1299 FILLER_0_3_181
*1300 FILLER_0_3_193
*1301 FILLER_0_3_205
*1302 FILLER_0_3_217
*1303 FILLER_0_3_223
*1304 FILLER_0_3_225
*1305 FILLER_0_3_237
*1306 FILLER_0_3_249
*1307 FILLER_0_3_261
*1308 FILLER_0_3_27
*1309 FILLER_0_3_273
*1310 FILLER_0_3_279
*1311 FILLER_0_3_281
*1312 FILLER_0_3_293
*1313 FILLER_0_3_3
*1314 FILLER_0_3_305
*1315 FILLER_0_3_317
*1316 FILLER_0_3_329
*1317 FILLER_0_3_335
*1318 FILLER_0_3_337
*1319 FILLER_0_3_349
*1320 FILLER_0_3_39
*1321 FILLER_0_3_51
*1322 FILLER_0_3_55
*1323 FILLER_0_3_57
*1324 FILLER_0_3_69
*1325 FILLER_0_3_81
*1326 FILLER_0_3_93
*1327 FILLER_0_4_109
*1328 FILLER_0_4_121
*1329 FILLER_0_4_133
*1330 FILLER_0_4_139
*1331 FILLER_0_4_141
*1332 FILLER_0_4_15
*1333 FILLER_0_4_153
*1334 FILLER_0_4_165
*1335 FILLER_0_4_177
*1336 FILLER_0_4_189
*1337 FILLER_0_4_195
*1338 FILLER_0_4_197
*1339 FILLER_0_4_209
*1340 FILLER_0_4_221
*1341 FILLER_0_4_233
*1342 FILLER_0_4_245
*1343 FILLER_0_4_251
*1344 FILLER_0_4_253
*1345 FILLER_0_4_265
*1346 FILLER_0_4_27
*1347 FILLER_0_4_277
*1348 FILLER_0_4_289
*1349 FILLER_0_4_29
*1350 FILLER_0_4_3
*1351 FILLER_0_4_301
*1352 FILLER_0_4_307
*1353 FILLER_0_4_309
*1354 FILLER_0_4_321
*1355 FILLER_0_4_333
*1356 FILLER_0_4_345
*1357 FILLER_0_4_41
*1358 FILLER_0_4_53
*1359 FILLER_0_4_65
*1360 FILLER_0_4_77
*1361 FILLER_0_4_83
*1362 FILLER_0_4_85
*1363 FILLER_0_4_97
*1364 FILLER_0_5_105
*1365 FILLER_0_5_111
*1366 FILLER_0_5_113
*1367 FILLER_0_5_125
*1368 FILLER_0_5_137
*1369 FILLER_0_5_149
*1370 FILLER_0_5_15
*1371 FILLER_0_5_161
*1372 FILLER_0_5_167
*1373 FILLER_0_5_169
*1374 FILLER_0_5_181
*1375 FILLER_0_5_193
*1376 FILLER_0_5_205
*1377 FILLER_0_5_217
*1378 FILLER_0_5_223
*1379 FILLER_0_5_225
*1380 FILLER_0_5_237
*1381 FILLER_0_5_249
*1382 FILLER_0_5_261
*1383 FILLER_0_5_27
*1384 FILLER_0_5_273
*1385 FILLER_0_5_279
*1386 FILLER_0_5_281
*1387 FILLER_0_5_293
*1388 FILLER_0_5_3
*1389 FILLER_0_5_305
*1390 FILLER_0_5_317
*1391 FILLER_0_5_329
*1392 FILLER_0_5_335
*1393 FILLER_0_5_337
*1394 FILLER_0_5_349
*1395 FILLER_0_5_39
*1396 FILLER_0_5_51
*1397 FILLER_0_5_55
*1398 FILLER_0_5_57
*1399 FILLER_0_5_69
*1400 FILLER_0_5_81
*1401 FILLER_0_5_93
*1402 FILLER_0_6_109
*1403 FILLER_0_6_121
*1404 FILLER_0_6_133
*1405 FILLER_0_6_139
*1406 FILLER_0_6_141
*1407 FILLER_0_6_15
*1408 FILLER_0_6_153
*1409 FILLER_0_6_165
*1410 FILLER_0_6_177
*1411 FILLER_0_6_189
*1412 FILLER_0_6_195
*1413 FILLER_0_6_197
*1414 FILLER_0_6_209
*1415 FILLER_0_6_221
*1416 FILLER_0_6_233
*1417 FILLER_0_6_245
*1418 FILLER_0_6_251
*1419 FILLER_0_6_253
*1420 FILLER_0_6_265
*1421 FILLER_0_6_27
*1422 FILLER_0_6_277
*1423 FILLER_0_6_289
*1424 FILLER_0_6_29
*1425 FILLER_0_6_3
*1426 FILLER_0_6_301
*1427 FILLER_0_6_307
*1428 FILLER_0_6_309
*1429 FILLER_0_6_321
*1430 FILLER_0_6_333
*1431 FILLER_0_6_345
*1432 FILLER_0_6_41
*1433 FILLER_0_6_53
*1434 FILLER_0_6_65
*1435 FILLER_0_6_77
*1436 FILLER_0_6_83
*1437 FILLER_0_6_85
*1438 FILLER_0_6_97
*1439 FILLER_0_7_105
*1440 FILLER_0_7_111
*1441 FILLER_0_7_113
*1442 FILLER_0_7_125
*1443 FILLER_0_7_137
*1444 FILLER_0_7_149
*1445 FILLER_0_7_15
*1446 FILLER_0_7_161
*1447 FILLER_0_7_167
*1448 FILLER_0_7_169
*1449 FILLER_0_7_181
*1450 FILLER_0_7_193
*1451 FILLER_0_7_205
*1452 FILLER_0_7_217
*1453 FILLER_0_7_223
*1454 FILLER_0_7_225
*1455 FILLER_0_7_237
*1456 FILLER_0_7_249
*1457 FILLER_0_7_261
*1458 FILLER_0_7_27
*1459 FILLER_0_7_273
*1460 FILLER_0_7_279
*1461 FILLER_0_7_281
*1462 FILLER_0_7_293
*1463 FILLER_0_7_3
*1464 FILLER_0_7_305
*1465 FILLER_0_7_317
*1466 FILLER_0_7_329
*1467 FILLER_0_7_335
*1468 FILLER_0_7_337
*1469 FILLER_0_7_349
*1470 FILLER_0_7_39
*1471 FILLER_0_7_51
*1472 FILLER_0_7_55
*1473 FILLER_0_7_57
*1474 FILLER_0_7_69
*1475 FILLER_0_7_81
*1476 FILLER_0_7_93
*1477 FILLER_0_8_109
*1478 FILLER_0_8_121
*1479 FILLER_0_8_133
*1480 FILLER_0_8_139
*1481 FILLER_0_8_141
*1482 FILLER_0_8_15
*1483 FILLER_0_8_153