*SPEF "ieee 1481-1999"
*DESIGN "tt_um_reflex_game"
*DATE "11:11:11 Fri 11 11, 1111"
*VENDOR "OpenRCX"
*PROGRAM "Parallel Extraction"
*VERSION "1.0"
*DESIGN_FLOW "NAME_SCOPE LOCAL" "PIN_CAP NONE"
*DIVIDER /
*DELIMITER :
*BUS_DELIMITER []
*T_UNIT 1 NS
*C_UNIT 1 PF
*R_UNIT 1 OHM
*L_UNIT 1 HENRY

*NAME_MAP
*3 clk
*4 ena
*5 rst_n
*6 ui_in[0]
*7 ui_in[1]
*8 ui_in[2]
*9 ui_in[3]
*10 ui_in[4]
*11 ui_in[5]
*12 ui_in[6]
*13 ui_in[7]
*14 uio_in[0]
*15 uio_in[1]
*16 uio_in[2]
*17 uio_in[3]
*18 uio_in[4]
*19 uio_in[5]
*20 uio_in[6]
*21 uio_in[7]
*22 net11
*23 net23
*24 net24
*25 net12
*26 net13
*27 net14
*28 net15
*29 net16
*30 net17
*31 uio_out[1]
*32 uio_out[2]
*33 net18
*34 net19
*35 net20
*36 net21
*37 net22
*38 uo_out[0]
*39 uo_out[1]
*40 uo_out[2]
*41 uo_out[3]
*42 uo_out[4]
*43 uo_out[5]
*44 uo_out[6]
*45 uo_out[7]
*46 DUT\.code\[0\]
*47 DUT\.code\[1\]
*48 DUT\.code\[2\]
*49 DUT\.code\[3\]
*50 DUT\.code\[4\]
*51 DUT\.code\[5\]
*52 DUT\.code\[6\]
*53 DUT\.code\[7\]
*54 DUT\.correct_light
*55 DUT\.incorrect_light
*56 DUT\.lfsr1\.out\[0\]
*57 DUT\.lfsr1\.out\[1\]
*58 DUT\.lfsr1\.out\[2\]
*59 DUT\.lfsr1\.out\[3\]
*60 DUT\.lfsr1\.out\[4\]
*61 DUT\.lfsr1\.out\[5\]
*62 DUT\.lfsr1\.out\[6\]
*63 DUT\.lfsr1\.out\[7\]
*64 DUT\.p\.button_states\[0\]
*65 DUT\.p\.button_states\[1\]
*66 DUT\.p\.button_states\[2\]
*67 DUT\.p\.button_states\[3\]
*68 DUT\.p\.button_states\[4\]
*69 DUT\.p\.button_states\[5\]
*70 DUT\.p\.button_states\[6\]
*71 DUT\.p\.button_states\[7\]
*72 DUT\.p\.debounce_states\[0\]
*73 DUT\.p\.debounce_states\[1\]
*74 DUT\.p\.debounce_states\[2\]
*75 DUT\.p\.debounce_states\[3\]
*76 DUT\.p\.debounce_states\[4\]
*77 DUT\.p\.debounce_states\[5\]
*78 DUT\.p\.debounce_states\[6\]
*79 DUT\.p\.debounce_states\[7\]
*80 DUT\.p\.reset_debounce
*81 DUT\.p\.state\[0\]
*82 DUT\.p\.state\[2\]
*83 DUT\.p\.stored_code\[0\]
*84 DUT\.p\.stored_code\[1\]
*85 DUT\.p\.stored_code\[2\]
*86 DUT\.p\.stored_code\[3\]
*87 DUT\.p\.stored_code\[4\]
*88 DUT\.p\.stored_code\[5\]
*89 DUT\.p\.stored_code\[6\]
*90 DUT\.p\.stored_code\[7\]
*91 DUT\.p\.timer\[0\]
*92 DUT\.p\.timer\[10\]
*93 DUT\.p\.timer\[11\]
*94 DUT\.p\.timer\[12\]
*95 DUT\.p\.timer\[13\]
*96 DUT\.p\.timer\[14\]
*97 DUT\.p\.timer\[15\]
*98 DUT\.p\.timer\[16\]
*99 DUT\.p\.timer\[17\]
*100 DUT\.p\.timer\[18\]
*101 DUT\.p\.timer\[19\]
*102 DUT\.p\.timer\[1\]
*103 DUT\.p\.timer\[20\]
*104 DUT\.p\.timer\[21\]
*105 DUT\.p\.timer\[22\]
*106 DUT\.p\.timer\[23\]
*107 DUT\.p\.timer\[24\]
*108 DUT\.p\.timer\[25\]
*109 DUT\.p\.timer\[26\]
*110 DUT\.p\.timer\[27\]
*111 DUT\.p\.timer\[28\]
*112 DUT\.p\.timer\[29\]
*113 DUT\.p\.timer\[2\]
*114 DUT\.p\.timer\[30\]
*115 DUT\.p\.timer\[31\]
*116 DUT\.p\.timer\[3\]
*117 DUT\.p\.timer\[4\]
*118 DUT\.p\.timer\[5\]
*119 DUT\.p\.timer\[6\]
*120 DUT\.p\.timer\[7\]
*121 DUT\.p\.timer\[8\]
*122 DUT\.p\.timer\[9\]
*123 _000_
*124 _001_
*125 _002_
*126 _003_
*127 _004_
*128 _005_
*129 _006_
*130 _007_
*131 _008_
*132 _009_
*133 _010_
*134 _011_
*135 _012_
*136 _013_
*137 _014_
*138 _015_
*139 _016_
*140 _017_
*141 _018_
*142 _019_
*143 _020_
*144 _021_
*145 _022_
*146 _023_
*147 _024_
*148 _025_
*149 _026_
*150 _027_
*151 _028_
*152 _029_
*153 _030_
*154 _031_
*155 _032_
*156 _033_
*157 _034_
*158 _035_
*159 _036_
*160 _037_
*161 _038_
*162 _039_
*163 _040_
*164 _041_
*165 _042_
*166 _043_
*167 _044_
*168 _045_
*169 _046_
*170 _047_
*171 _048_
*172 _049_
*173 _050_
*174 _051_
*175 _052_
*176 _053_
*177 _054_
*178 _055_
*179 _056_
*180 _057_
*181 _058_
*182 _059_
*183 _060_
*184 _061_
*185 _062_
*186 _063_
*187 _064_
*188 _065_
*189 _066_
*190 _067_
*191 _068_
*192 _069_
*193 _070_
*194 _071_
*195 _072_
*196 _073_
*197 _074_
*198 _075_
*199 _076_
*200 _077_
*201 _078_
*202 _079_
*203 _080_
*204 _081_
*205 _082_
*206 _083_
*207 _084_
*208 _085_
*209 _086_
*210 _087_
*211 _088_
*212 _089_
*213 _090_
*214 _091_
*215 _092_
*216 _093_
*217 _094_
*218 _095_
*219 _096_
*220 _097_
*221 _098_
*222 _099_
*223 _100_
*224 _101_
*225 _102_
*226 _103_
*227 _104_
*228 _105_
*229 _106_
*230 _107_
*231 _108_
*232 _109_
*233 _110_
*234 _111_
*235 _112_
*236 _113_
*237 _114_
*238 _115_
*239 _116_
*240 _117_
*241 _118_
*242 _119_
*243 _120_
*244 _121_
*245 _122_
*246 _123_
*247 _124_
*248 _125_
*249 _126_
*250 _127_
*251 _128_
*252 _129_
*253 _130_
*254 _131_
*255 _132_
*256 _133_
*257 _134_
*258 _135_
*259 _136_
*260 _137_
*261 _138_
*262 _139_
*263 _140_
*264 _141_
*265 _142_
*266 _143_
*267 _144_
*268 _145_
*269 _146_
*270 _147_
*271 _148_
*272 _149_
*273 _150_
*274 _151_
*275 _152_
*276 _153_
*277 _154_
*278 _155_
*279 _156_
*280 _157_
*281 _158_
*282 _159_
*283 _160_
*284 _161_
*285 _162_
*286 _163_
*287 _164_
*288 _165_
*289 _166_
*290 _167_
*291 _168_
*292 _169_
*293 _170_
*294 _171_
*295 _172_
*296 _173_
*297 _174_
*298 _175_
*299 _176_
*300 _177_
*301 _178_
*302 _179_
*303 _180_
*304 _181_
*305 _182_
*306 _183_
*307 _184_
*308 _185_
*309 _186_
*310 _187_
*311 _188_
*312 _189_
*313 _190_
*314 _191_
*315 _192_
*316 _193_
*317 _194_
*318 _195_
*319 _196_
*320 _197_
*321 _198_
*322 _199_
*323 _200_
*324 _201_
*325 _202_
*326 _203_
*327 _204_
*328 _205_
*329 _206_
*330 _207_
*331 _208_
*332 _209_
*333 _210_
*334 _211_
*335 _212_
*336 _213_
*337 _214_
*338 _215_
*339 _216_
*340 _217_
*341 _218_
*342 _219_
*343 _220_
*344 _221_
*345 _222_
*346 _223_
*347 _224_
*348 _225_
*349 _226_
*350 _227_
*351 _228_
*352 _229_
*353 _230_
*354 _231_
*355 _232_
*356 _233_
*357 _234_
*358 _235_
*359 _236_
*360 _237_
*361 _238_
*362 _239_
*363 _240_
*364 _241_
*365 _242_
*366 _243_
*367 _244_
*368 _245_
*369 _246_
*370 _247_
*371 _248_
*372 _249_
*373 _250_
*374 _251_
*375 _252_
*376 _253_
*377 _254_
*378 _255_
*379 _256_
*380 _257_
*381 _258_
*382 _259_
*383 _260_
*384 _261_
*385 _262_
*386 _263_
*387 _264_
*388 _265_
*389 _266_
*390 _267_
*391 _268_
*392 clknet_0_clk
*393 clknet_3_0__leaf_clk
*394 clknet_3_1__leaf_clk
*395 clknet_3_2__leaf_clk
*396 clknet_3_3__leaf_clk
*397 clknet_3_4__leaf_clk
*398 clknet_3_5__leaf_clk
*399 clknet_3_6__leaf_clk
*400 clknet_3_7__leaf_clk
*401 net1
*402 net10
*403 net100
*404 net101
*405 net102
*406 net103
*407 net104
*408 net105
*409 net106
*410 net2
*411 net25
*412 net26
*413 net27
*414 net28
*415 net29
*416 net3
*417 net30
*418 net31
*419 net32
*420 net33
*421 net34
*422 net35
*423 net36
*424 net37
*425 net38
*426 net39
*427 net4
*428 net40
*429 net41
*430 net42
*431 net43
*432 net44
*433 net45
*434 net46
*435 net47
*436 net48
*437 net49
*438 net5
*439 net50
*440 net51
*441 net52
*442 net53
*443 net54
*444 net55
*445 net56
*446 net57
*447 net58
*448 net59
*449 net6
*450 net60
*451 net61
*452 net62
*453 net63
*454 net64
*455 net65
*456 net66
*457 net67
*458 net68
*459 net69
*460 net7
*461 net70
*462 net71
*463 net72
*464 net73
*465 net74
*466 net75
*467 net76
*468 net77
*469 net78
*470 net79
*471 net8
*472 net80
*473 net81
*474 net82
*475 net83
*476 net84
*477 net85
*478 net86
*479 net87
*480 net88
*481 net89
*482 net9
*483 net90
*484 net91
*485 net92
*486 net93
*487 net94
*488 net95
*489 net96
*490 net97
*491 net98
*492 net99
*493 FILLER_0_0_109
*494 FILLER_0_0_113
*495 FILLER_0_0_125
*496 FILLER_0_0_137
*497 FILLER_0_0_141
*498 FILLER_0_0_15
*499 FILLER_0_0_153
*500 FILLER_0_0_165
*501 FILLER_0_0_169
*502 FILLER_0_0_181
*503 FILLER_0_0_193
*504 FILLER_0_0_197
*505 FILLER_0_0_209
*506 FILLER_0_0_221
*507 FILLER_0_0_225
*508 FILLER_0_0_237
*509 FILLER_0_0_249
*510 FILLER_0_0_253
*511 FILLER_0_0_265
*512 FILLER_0_0_27
*513 FILLER_0_0_277
*514 FILLER_0_0_281
*515 FILLER_0_0_29
*516 FILLER_0_0_293
*517 FILLER_0_0_3
*518 FILLER_0_0_305
*519 FILLER_0_0_309
*520 FILLER_0_0_321
*521 FILLER_0_0_333
*522 FILLER_0_0_337
*523 FILLER_0_0_349
*524 FILLER_0_0_41
*525 FILLER_0_0_53
*526 FILLER_0_0_57
*527 FILLER_0_0_69
*528 FILLER_0_0_81
*529 FILLER_0_0_85
*530 FILLER_0_0_97
*531 FILLER_0_10_109
*532 FILLER_0_10_121
*533 FILLER_0_10_133
*534 FILLER_0_10_139
*535 FILLER_0_10_141
*536 FILLER_0_10_15
*537 FILLER_0_10_153
*538 FILLER_0_10_165
*539 FILLER_0_10_177
*540 FILLER_0_10_189
*541 FILLER_0_10_195
*542 FILLER_0_10_197
*543 FILLER_0_10_209
*544 FILLER_0_10_221
*545 FILLER_0_10_233
*546 FILLER_0_10_245
*547 FILLER_0_10_251
*548 FILLER_0_10_253
*549 FILLER_0_10_265
*550 FILLER_0_10_27
*551 FILLER_0_10_277
*552 FILLER_0_10_289
*553 FILLER_0_10_29
*554 FILLER_0_10_3
*555 FILLER_0_10_301
*556 FILLER_0_10_307
*557 FILLER_0_10_309
*558 FILLER_0_10_321
*559 FILLER_0_10_333
*560 FILLER_0_10_345
*561 FILLER_0_10_41
*562 FILLER_0_10_53
*563 FILLER_0_10_65
*564 FILLER_0_10_77
*565 FILLER_0_10_83
*566 FILLER_0_10_85
*567 FILLER_0_10_97
*568 FILLER_0_11_105
*569 FILLER_0_11_111
*570 FILLER_0_11_113
*571 FILLER_0_11_125
*572 FILLER_0_11_137
*573 FILLER_0_11_149
*574 FILLER_0_11_15
*575 FILLER_0_11_161
*576 FILLER_0_11_167
*577 FILLER_0_11_169
*578 FILLER_0_11_181
*579 FILLER_0_11_193
*580 FILLER_0_11_205
*581 FILLER_0_11_217
*582 FILLER_0_11_223
*583 FILLER_0_11_225
*584 FILLER_0_11_237
*585 FILLER_0_11_249
*586 FILLER_0_11_261
*587 FILLER_0_11_27
*588 FILLER_0_11_273
*589 FILLER_0_11_279
*590 FILLER_0_11_281
*591 FILLER_0_11_293
*592 FILLER_0_11_3
*593 FILLER_0_11_305
*594 FILLER_0_11_317
*595 FILLER_0_11_329
*596 FILLER_0_11_335
*597 FILLER_0_11_337
*598 FILLER_0_11_349
*599 FILLER_0_11_39
*600 FILLER_0_11_51
*601 FILLER_0_11_55
*602 FILLER_0_11_57
*603 FILLER_0_11_69
*604 FILLER_0_11_81
*605 FILLER_0_11_93
*606 FILLER_0_12_109
*607 FILLER_0_12_121
*608 FILLER_0_12_133
*609 FILLER_0_12_139
*610 FILLER_0_12_141
*611 FILLER_0_12_15
*612 FILLER_0_12_153
*613 FILLER_0_12_165
*614 FILLER_0_12_177
*615 FILLER_0_12_189
*616 FILLER_0_12_195
*617 FILLER_0_12_197
*618 FILLER_0_12_209
*619 FILLER_0_12_221
*620 FILLER_0_12_233
*621 FILLER_0_12_245
*622 FILLER_0_12_251
*623 FILLER_0_12_253
*624 FILLER_0_12_265
*625 FILLER_0_12_27
*626 FILLER_0_12_277
*627 FILLER_0_12_289
*628 FILLER_0_12_29
*629 FILLER_0_12_3
*630 FILLER_0_12_301
*631 FILLER_0_12_307
*632 FILLER_0_12_309
*633 FILLER_0_12_321
*634 FILLER_0_12_333
*635 FILLER_0_12_345
*636 FILLER_0_12_41
*637 FILLER_0_12_53
*638 FILLER_0_12_65
*639 FILLER_0_12_77
*640 FILLER_0_12_83
*641 FILLER_0_12_85
*642 FILLER_0_12_97
*643 FILLER_0_13_105
*644 FILLER_0_13_111
*645 FILLER_0_13_113
*646 FILLER_0_13_125
*647 FILLER_0_13_137
*648 FILLER_0_13_149
*649 FILLER_0_13_15
*650 FILLER_0_13_161
*651 FILLER_0_13_167
*652 FILLER_0_13_169
*653 FILLER_0_13_181
*654 FILLER_0_13_193
*655 FILLER_0_13_205
*656 FILLER_0_13_217
*657 FILLER_0_13_223
*658 FILLER_0_13_225
*659 FILLER_0_13_237
*660 FILLER_0_13_249
*661 FILLER_0_13_261
*662 FILLER_0_13_27
*663 FILLER_0_13_273
*664 FILLER_0_13_279
*665 FILLER_0_13_281
*666 FILLER_0_13_293
*667 FILLER_0_13_3
*668 FILLER_0_13_305
*669 FILLER_0_13_317
*670 FILLER_0_13_329
*671 FILLER_0_13_335
*672 FILLER_0_13_337
*673 FILLER_0_13_349
*674 FILLER_0_13_39
*675 FILLER_0_13_51
*676 FILLER_0_13_55
*677 FILLER_0_13_57
*678 FILLER_0_13_69
*679 FILLER_0_13_81
*680 FILLER_0_13_93
*681 FILLER_0_14_109
*682 FILLER_0_14_121
*683 FILLER_0_14_133
*684 FILLER_0_14_139
*685 FILLER_0_14_141
*686 FILLER_0_14_15
*687 FILLER_0_14_153
*688 FILLER_0_14_165
*689 FILLER_0_14_177
*690 FILLER_0_14_189
*691 FILLER_0_14_195
*692 FILLER_0_14_197
*693 FILLER_0_14_209
*694 FILLER_0_14_221
*695 FILLER_0_14_233
*696 FILLER_0_14_245
*697 FILLER_0_14_251
*698 FILLER_0_14_253
*699 FILLER_0_14_265
*700 FILLER_0_14_27
*701 FILLER_0_14_277
*702 FILLER_0_14_289
*703 FILLER_0_14_29
*704 FILLER_0_14_3
*705 FILLER_0_14_301
*706 FILLER_0_14_307
*707 FILLER_0_14_309
*708 FILLER_0_14_321
*709 FILLER_0_14_333
*710 FILLER_0_14_345
*711 FILLER_0_14_41
*712 FILLER_0_14_53
*713 FILLER_0_14_65
*714 FILLER_0_14_77
*715 FILLER_0_14_83
*716 FILLER_0_14_85
*717 FILLER_0_14_97
*718 FILLER_0_15_105
*719 FILLER_0_15_111
*720 FILLER_0_15_113
*721 FILLER_0_15_117
*722 FILLER_0_15_124
*723 FILLER_0_15_136
*724 FILLER_0_15_140
*725 FILLER_0_15_15
*726 FILLER_0_15_150
*727 FILLER_0_15_162
*728 FILLER_0_15_169
*729 FILLER_0_15_181
*730 FILLER_0_15_193
*731 FILLER_0_15_205
*732 FILLER_0_15_217
*733 FILLER_0_15_223
*734 FILLER_0_15_225
*735 FILLER_0_15_237
*736 FILLER_0_15_249
*737 FILLER_0_15_261
*738 FILLER_0_15_27
*739 FILLER_0_15_273
*740 FILLER_0_15_279
*741 FILLER_0_15_281
*742 FILLER_0_15_293
*743 FILLER_0_15_3
*744 FILLER_0_15_305
*745 FILLER_0_15_317
*746 FILLER_0_15_329
*747 FILLER_0_15_335
*748 FILLER_0_15_337
*749 FILLER_0_15_349
*750 FILLER_0_15_39
*751 FILLER_0_15_51
*752 FILLER_0_15_55
*753 FILLER_0_15_57
*754 FILLER_0_15_69
*755 FILLER_0_15_81
*756 FILLER_0_15_93
*757 FILLER_0_16_101
*758 FILLER_0_16_134
*759 FILLER_0_16_149
*760 FILLER_0_16_15
*761 FILLER_0_16_157
*762 FILLER_0_16_170
*763 FILLER_0_16_182
*764 FILLER_0_16_194
*765 FILLER_0_16_197
*766 FILLER_0_16_209
*767 FILLER_0_16_221
*768 FILLER_0_16_229
*769 FILLER_0_16_236
*770 FILLER_0_16_248
*771 FILLER_0_16_253
*772 FILLER_0_16_265
*773 FILLER_0_16_27
*774 FILLER_0_16_277
*775 FILLER_0_16_289
*776 FILLER_0_16_29
*777 FILLER_0_16_3
*778 FILLER_0_16_301
*779 FILLER_0_16_307
*780 FILLER_0_16_309
*781 FILLER_0_16_321
*782 FILLER_0_16_333
*783 FILLER_0_16_345
*784 FILLER_0_16_41
*785 FILLER_0_16_53
*786 FILLER_0_16_65
*787 FILLER_0_16_77
*788 FILLER_0_16_83
*789 FILLER_0_16_85
*790 FILLER_0_16_97
*791 FILLER_0_17_15
*792 FILLER_0_17_167
*793 FILLER_0_17_187
*794 FILLER_0_17_196
*795 FILLER_0_17_215
*796 FILLER_0_17_223
*797 FILLER_0_17_247
*798 FILLER_0_17_259
*799 FILLER_0_17_27
*800 FILLER_0_17_271
*801 FILLER_0_17_279
*802 FILLER_0_17_281
*803 FILLER_0_17_293
*804 FILLER_0_17_3
*805 FILLER_0_17_305
*806 FILLER_0_17_317
*807 FILLER_0_17_329
*808 FILLER_0_17_335
*809 FILLER_0_17_337
*810 FILLER_0_17_349
*811 FILLER_0_17_39
*812 FILLER_0_17_51
*813 FILLER_0_17_55
*814 FILLER_0_17_57
*815 FILLER_0_17_69
*816 FILLER_0_17_81
*817 FILLER_0_17_93
*818 FILLER_0_18_138
*819 FILLER_0_18_141
*820 FILLER_0_18_15
*821 FILLER_0_18_195
*822 FILLER_0_18_264
*823 FILLER_0_18_27
*824 FILLER_0_18_276
*825 FILLER_0_18_288
*826 FILLER_0_18_29
*827 FILLER_0_18_3
*828 FILLER_0_18_300
*829 FILLER_0_18_309
*830 FILLER_0_18_321
*831 FILLER_0_18_333
*832 FILLER_0_18_345
*833 FILLER_0_18_41
*834 FILLER_0_18_53
*835 FILLER_0_18_65
*836 FILLER_0_18_77
*837 FILLER_0_18_83
*838 FILLER_0_18_85
*839 FILLER_0_18_97
*840 FILLER_0_19_105
*841 FILLER_0_19_133
*842 FILLER_0_19_141
*843 FILLER_0_19_15
*844 FILLER_0_19_183
*845 FILLER_0_19_195
*846 FILLER_0_19_203
*847 FILLER_0_19_221
*848 FILLER_0_19_263
*849 FILLER_0_19_27
*850 FILLER_0_19_275
*851 FILLER_0_19_279
*852 FILLER_0_19_281
*853 FILLER_0_19_293
*854 FILLER_0_19_3
*855 FILLER_0_19_305
*856 FILLER_0_19_317
*857 FILLER_0_19_329
*858 FILLER_0_19_335
*859 FILLER_0_19_337
*860 FILLER_0_19_349
*861 FILLER_0_19_39
*862 FILLER_0_19_51
*863 FILLER_0_19_55
*864 FILLER_0_19_57
*865 FILLER_0_19_69
*866 FILLER_0_19_81
*867 FILLER_0_19_93
*868 FILLER_0_19_97
*869 FILLER_0_1_105
*870 FILLER_0_1_111
*871 FILLER_0_1_113
*872 FILLER_0_1_125
*873 FILLER_0_1_137
*874 FILLER_0_1_149
*875 FILLER_0_1_15
*876 FILLER_0_1_161
*877 FILLER_0_1_167
*878 FILLER_0_1_169
*879 FILLER_0_1_181
*880 FILLER_0_1_193
*881 FILLER_0_1_205
*882 FILLER_0_1_217
*883 FILLER_0_1_223
*884 FILLER_0_1_225
*885 FILLER_0_1_237
*886 FILLER_0_1_249
*887 FILLER_0_1_261
*888 FILLER_0_1_27
*889 FILLER_0_1_273
*890 FILLER_0_1_279
*891 FILLER_0_1_281
*892 FILLER_0_1_293
*893 FILLER_0_1_3
*894 FILLER_0_1_305
*895 FILLER_0_1_317
*896 FILLER_0_1_329
*897 FILLER_0_1_335
*898 FILLER_0_1_337
*899 FILLER_0_1_349
*900 FILLER_0_1_39
*901 FILLER_0_1_51
*902 FILLER_0_1_55
*903 FILLER_0_1_57
*904 FILLER_0_1_69
*905 FILLER_0_1_81
*906 FILLER_0_1_93
*907 FILLER_0_20_134
*908 FILLER_0_20_141
*909 FILLER_0_20_149
*910 FILLER_0_20_15
*911 FILLER_0_20_160
*912 FILLER_0_20_168
*913 FILLER_0_20_175
*914 FILLER_0_20_187
*915 FILLER_0_20_195
*916 FILLER_0_20_197
*917 FILLER_0_20_212
*918 FILLER_0_20_220
*919 FILLER_0_20_261
*920 FILLER_0_20_27
*921 FILLER_0_20_273
*922 FILLER_0_20_285
*923 FILLER_0_20_29
*924 FILLER_0_20_297
*925 FILLER_0_20_3
*926 FILLER_0_20_305
*927 FILLER_0_20_309
*928 FILLER_0_20_321
*929 FILLER_0_20_333
*930 FILLER_0_20_345
*931 FILLER_0_20_41
*932 FILLER_0_20_53
*933 FILLER_0_20_65
*934 FILLER_0_20_77
*935 FILLER_0_20_83
*936 FILLER_0_20_85
*937 FILLER_0_20_93
*938 FILLER_0_21_135
*939 FILLER_0_21_147
*940 FILLER_0_21_15
*941 FILLER_0_21_159
*942 FILLER_0_21_178
*943 FILLER_0_21_190
*944 FILLER_0_21_202
*945 FILLER_0_21_211
*946 FILLER_0_21_217
*947 FILLER_0_21_223
*948 FILLER_0_21_263
*949 FILLER_0_21_27
*950 FILLER_0_21_275
*951 FILLER_0_21_279
*952 FILLER_0_21_297
*953 FILLER_0_21_3
*954 FILLER_0_21_306
*955 FILLER_0_21_314
*956 FILLER_0_21_322
*957 FILLER_0_21_334
*958 FILLER_0_21_337
*959 FILLER_0_21_349
*960 FILLER_0_21_39
*961 FILLER_0_21_51
*962 FILLER_0_21_55
*963 FILLER_0_21_57
*964 FILLER_0_21_69
*965 FILLER_0_21_81
*966 FILLER_0_21_93
*967 FILLER_0_22_121
*968 FILLER_0_22_139
*969 FILLER_0_22_141
*970 FILLER_0_22_145
*971 FILLER_0_22_15
*972 FILLER_0_22_162
*973 FILLER_0_22_183
*974 FILLER_0_22_195
*975 FILLER_0_22_227
*976 FILLER_0_22_231
*977 FILLER_0_22_251
*978 FILLER_0_22_261
*979 FILLER_0_22_269
*980 FILLER_0_22_27
*981 FILLER_0_22_29
*982 FILLER_0_22_298
*983 FILLER_0_22_3
*984 FILLER_0_22_302
*985 FILLER_0_22_341
*986 FILLER_0_22_349
*987 FILLER_0_22_41
*988 FILLER_0_22_53
*989 FILLER_0_22_65
*990 FILLER_0_22_77
*991 FILLER_0_22_83
*992 FILLER_0_22_85
*993 FILLER_0_23_103
*994 FILLER_0_23_119
*995 FILLER_0_23_129
*996 FILLER_0_23_137
*997 FILLER_0_23_15
*998 FILLER_0_23_158
*999 FILLER_0_23_169
*1000 FILLER_0_23_186
*1001 FILLER_0_23_194
*1002 FILLER_0_23_217
*1003 FILLER_0_23_223
*1004 FILLER_0_23_225
*1005 FILLER_0_23_237
*1006 FILLER_0_23_255
*1007 FILLER_0_23_263
*1008 FILLER_0_23_27
*1009 FILLER_0_23_271
*1010 FILLER_0_23_275
*1011 FILLER_0_23_279
*1012 FILLER_0_23_286
*1013 FILLER_0_23_294
*1014 FILLER_0_23_3
*1015 FILLER_0_23_306
*1016 FILLER_0_23_312
*1017 FILLER_0_23_337
*1018 FILLER_0_23_349
*1019 FILLER_0_23_39
*1020 FILLER_0_23_51
*1021 FILLER_0_23_55
*1022 FILLER_0_23_57
*1023 FILLER_0_23_69
*1024 FILLER_0_23_81
*1025 FILLER_0_23_93
*1026 FILLER_0_24_104
*1027 FILLER_0_24_112
*1028 FILLER_0_24_122
*1029 FILLER_0_24_134
*1030 FILLER_0_24_141
*1031 FILLER_0_24_145
*1032 FILLER_0_24_15
*1033 FILLER_0_24_161
*1034 FILLER_0_24_186
*1035 FILLER_0_24_194
*1036 FILLER_0_24_203
*1037 FILLER_0_24_208
*1038 FILLER_0_24_212
*1039 FILLER_0_24_220
*1040 FILLER_0_24_232
*1041 FILLER_0_24_236
*1042 FILLER_0_24_246
*1043 FILLER_0_24_261
*1044 FILLER_0_24_27
*1045 FILLER_0_24_270
*1046 FILLER_0_24_287
*1047 FILLER_0_24_29
*1048 FILLER_0_24_3
*1049 FILLER_0_24_309
*1050 FILLER_0_24_315
*1051 FILLER_0_24_325
*1052 FILLER_0_24_343
*1053 FILLER_0_24_41
*1054 FILLER_0_24_53
*1055 FILLER_0_24_65
*1056 FILLER_0_24_77
*1057 FILLER_0_24_83
*1058 FILLER_0_24_85
*1059 FILLER_0_24_97
*1060 FILLER_0_25_111
*1061 FILLER_0_25_123
*1062 FILLER_0_25_135
*1063 FILLER_0_25_147
*1064 FILLER_0_25_15
*1065 FILLER_0_25_153
*1066 FILLER_0_25_177
*1067 FILLER_0_25_189
*1068 FILLER_0_25_201
*1069 FILLER_0_25_219
*1070 FILLER_0_25_223
*1071 FILLER_0_25_225
*1072 FILLER_0_25_252
*1073 FILLER_0_25_256
*1074 FILLER_0_25_27
*1075 FILLER_0_25_278
*1076 FILLER_0_25_281
*1077 FILLER_0_25_295
*1078 FILLER_0_25_3
*1079 FILLER_0_25_314
*1080 FILLER_0_25_335
*1081 FILLER_0_25_348
*1082 FILLER_0_25_39
*1083 FILLER_0_25_51
*1084 FILLER_0_25_55
*1085 FILLER_0_25_57
*1086 FILLER_0_25_69
*1087 FILLER_0_25_81
*1088 FILLER_0_25_93
*1089 FILLER_0_26_115
*1090 FILLER_0_26_136
*1091 FILLER_0_26_141
*1092 FILLER_0_26_15
*1093 FILLER_0_26_152
*1094 FILLER_0_26_162
*1095 FILLER_0_26_184
*1096 FILLER_0_26_203
*1097 FILLER_0_26_223
*1098 FILLER_0_26_251
*1099 FILLER_0_26_27
*1100 FILLER_0_26_29
*1101 FILLER_0_26_291
*1102 FILLER_0_26_3
*1103 FILLER_0_26_344
*1104 FILLER_0_26_350
*1105 FILLER_0_26_41
*1106 FILLER_0_26_53
*1107 FILLER_0_26_65
*1108 FILLER_0_26_77
*1109 FILLER_0_26_83
*1110 FILLER_0_26_85
*1111 FILLER_0_26_93
*1112 FILLER_0_27_134
*1113 FILLER_0_27_15
*1114 FILLER_0_27_160
*1115 FILLER_0_27_169
*1116 FILLER_0_27_181
*1117 FILLER_0_27_204
*1118 FILLER_0_27_209
*1119 FILLER_0_27_215
*1120 FILLER_0_27_264
*1121 FILLER_0_27_27
*1122 FILLER_0_27_277
*1123 FILLER_0_27_281
*1124 FILLER_0_27_285
*1125 FILLER_0_27_3
*1126 FILLER_0_27_310
*1127 FILLER_0_27_340
*1128 FILLER_0_27_348
*1129 FILLER_0_27_39
*1130 FILLER_0_27_51
*1131 FILLER_0_27_55
*1132 FILLER_0_27_57
*1133 FILLER_0_27_69
*1134 FILLER_0_27_81
*1135 FILLER_0_28_135
*1136 FILLER_0_28_139
*1137 FILLER_0_28_141
*1138 FILLER_0_28_15
*1139 FILLER_0_28_181
*1140 FILLER_0_28_197
*1141 FILLER_0_28_207
*1142 FILLER_0_28_218
*1143 FILLER_0_28_224
*1144 FILLER_0_28_234
*1145 FILLER_0_28_251
*1146 FILLER_0_28_267
*1147 FILLER_0_28_27
*1148 FILLER_0_28_271
*1149 FILLER_0_28_29
*1150 FILLER_0_28_3
*1151 FILLER_0_28_305
*1152 FILLER_0_28_349
*1153 FILLER_0_28_41
*1154 FILLER_0_28_53
*1155 FILLER_0_28_65
*1156 FILLER_0_28_77
*1157 FILLER_0_28_83
*1158 FILLER_0_28_85
*1159 FILLER_0_29_111
*1160 FILLER_0_29_131
*1161 FILLER_0_29_15
*1162 FILLER_0_29_165
*1163 FILLER_0_29_169
*1164 FILLER_0_29_200
*1165 FILLER_0_29_218
*1166 FILLER_0_29_223
*1167 FILLER_0_29_225
*1168 FILLER_0_29_27
*1169 FILLER_0_29_276
*1170 FILLER_0_29_289
*1171 FILLER_0_29_3
*1172 FILLER_0_29_310
*1173 FILLER_0_29_334
*1174 FILLER_0_29_337
*1175 FILLER_0_29_347
*1176 FILLER_0_29_39
*1177 FILLER_0_29_51
*1178 FILLER_0_29_55
*1179 FILLER_0_29_57
*1180 FILLER_0_29_69
*1181 FILLER_0_29_81
*1182 FILLER_0_29_93
*1183 FILLER_0_2_109
*1184 FILLER_0_2_121
*1185 FILLER_0_2_133
*1186 FILLER_0_2_139
*1187 FILLER_0_2_141
*1188 FILLER_0_2_15
*1189 FILLER_0_2_153
*1190 FILLER_0_2_165
*1191 FILLER_0_2_177
*1192 FILLER_0_2_189
*1193 FILLER_0_2_195
*1194 FILLER_0_2_197
*1195 FILLER_0_2_209
*1196 FILLER_0_2_221
*1197 FILLER_0_2_233
*1198 FILLER_0_2_245
*1199 FILLER_0_2_251
*1200 FILLER_0_2_253
*1201 FILLER_0_2_265
*1202 FILLER_0_2_27
*1203 FILLER_0_2_277
*1204 FILLER_0_2_289
*1205 FILLER_0_2_29
*1206 FILLER_0_2_3
*1207 FILLER_0_2_301
*1208 FILLER_0_2_307
*1209 FILLER_0_2_309
*1210 FILLER_0_2_321
*1211 FILLER_0_2_333
*1212 FILLER_0_2_345
*1213 FILLER_0_2_41
*1214 FILLER_0_2_53
*1215 FILLER_0_2_65
*1216 FILLER_0_2_77
*1217 FILLER_0_2_83
*1218 FILLER_0_2_85
*1219 FILLER_0_2_97
*1220 FILLER_0_30_109
*1221 FILLER_0_30_127
*1222 FILLER_0_30_15
*1223 FILLER_0_30_157
*1224 FILLER_0_30_169
*1225 FILLER_0_30_184
*1226 FILLER_0_30_190
*1227 FILLER_0_30_210
*1228 FILLER_0_30_214
*1229 FILLER_0_30_231
*1230 FILLER_0_30_251
*1231 FILLER_0_30_256
*1232 FILLER_0_30_27
*1233 FILLER_0_30_274
*1234 FILLER_0_30_29
*1235 FILLER_0_30_3
*1236 FILLER_0_30_303
*1237 FILLER_0_30_307
*1238 FILLER_0_30_309
*1239 FILLER_0_30_348
*1240 FILLER_0_30_41
*1241 FILLER_0_30_53
*1242 FILLER_0_30_65
*1243 FILLER_0_30_77
*1244 FILLER_0_30_83
*1245 FILLER_0_30_85
*1246 FILLER_0_30_97
*1247 FILLER_0_31_105
*1248 FILLER_0_31_113
*1249 FILLER_0_31_15
*1250 FILLER_0_31_154
*1251 FILLER_0_31_160
*1252 FILLER_0_31_167
*1253 FILLER_0_31_178
*1254 FILLER_0_31_222
*1255 FILLER_0_31_233
*1256 FILLER_0_31_241
*1257 FILLER_0_31_250
*1258 FILLER_0_31_262
*1259 FILLER_0_31_27
*1260 FILLER_0_31_270
*1261 FILLER_0_31_3
*1262 FILLER_0_31_303
*1263 FILLER_0_31_311
*1264 FILLER_0_31_337
*1265 FILLER_0_31_341
*1266 FILLER_0_31_345
*1267 FILLER_0_31_39
*1268 FILLER_0_31_51
*1269 FILLER_0_31_55
*1270 FILLER_0_31_57
*1271 FILLER_0_31_69
*1272 FILLER_0_31_81
*1273 FILLER_0_31_93
*1274 FILLER_0_32_109
*1275 FILLER_0_32_117
*1276 FILLER_0_32_127
*1277 FILLER_0_32_136
*1278 FILLER_0_32_141
*1279 FILLER_0_32_15
*1280 FILLER_0_32_150
*1281 FILLER_0_32_156
*1282 FILLER_0_32_176
*1283 FILLER_0_32_214
*1284 FILLER_0_32_226
*1285 FILLER_0_32_234
*1286 FILLER_0_32_260
*1287 FILLER_0_32_27
*1288 FILLER_0_32_29
*1289 FILLER_0_32_3
*1290 FILLER_0_32_306
*1291 FILLER_0_32_309
*1292 FILLER_0_32_350
*1293 FILLER_0_32_41
*1294 FILLER_0_32_53
*1295 FILLER_0_32_65
*1296 FILLER_0_32_77
*1297 FILLER_0_32_83
*1298 FILLER_0_32_85
*1299 FILLER_0_32_97
*1300 FILLER_0_33_105
*1301 FILLER_0_33_111
*1302 FILLER_0_33_113
*1303 FILLER_0_33_125
*1304 FILLER_0_33_137
*1305 FILLER_0_33_149
*1306 FILLER_0_33_15
*1307 FILLER_0_33_160
*1308 FILLER_0_33_165
*1309 FILLER_0_33_169
*1310 FILLER_0_33_181
*1311 FILLER_0_33_190
*1312 FILLER_0_33_203
*1313 FILLER_0_33_215
*1314 FILLER_0_33_223
*1315 FILLER_0_33_225
*1316 FILLER_0_33_231
*1317 FILLER_0_33_27
*1318 FILLER_0_33_270
*1319 FILLER_0_33_278
*1320 FILLER_0_33_281
*1321 FILLER_0_33_3
*1322 FILLER_0_33_307
*1323 FILLER_0_33_311
*1324 FILLER_0_33_316
*1325 FILLER_0_33_323
*1326 FILLER_0_33_345
*1327 FILLER_0_33_39
*1328 FILLER_0_33_51
*1329 FILLER_0_33_55
*1330 FILLER_0_33_57
*1331 FILLER_0_33_69
*1332 FILLER_0_33_81
*1333 FILLER_0_33_93
*1334 FILLER_0_34_109
*1335 FILLER_0_34_121
*1336 FILLER_0_34_133
*1337 FILLER_0_34_139
*1338 FILLER_0_34_141
*1339 FILLER_0_34_15
*1340 FILLER_0_34_183
*1341 FILLER_0_34_191
*1342 FILLER_0_34_197
*1343 FILLER_0_34_209
*1344 FILLER_0_34_221
*1345 FILLER_0_34_233
*1346 FILLER_0_34_268
*1347 FILLER_0_34_27
*1348 FILLER_0_34_287
*1349 FILLER_0_34_29
*1350 FILLER_0_34_294
*1351 FILLER_0_34_3
*1352 FILLER_0_34_304
*1353 FILLER_0_34_309
*1354 FILLER_0_34_321
*1355 FILLER_0_34_325
*1356 FILLER_0_34_350
*1357 FILLER_0_34_41
*1358 FILLER_0_34_53
*1359 FILLER_0_34_65
*1360 FILLER_0_34_77
*1361 FILLER_0_34_83
*1362 FILLER_0_34_85
*1363 FILLER_0_34_97
*1364 FILLER_0_35_105
*1365 FILLER_0_35_111
*1366 FILLER_0_35_113
*1367 FILLER_0_35_125
*1368 FILLER_0_35_137
*1369 FILLER_0_35_145
*1370 FILLER_0_35_15
*1371 FILLER_0_35_178
*1372 FILLER_0_35_212
*1373 FILLER_0_35_241
*1374 FILLER_0_35_250
*1375 FILLER_0_35_267
*1376 FILLER_0_35_27
*1377 FILLER_0_35_279
*1378 FILLER_0_35_297
*1379 FILLER_0_35_3
*1380 FILLER_0_35_301
*1381 FILLER_0_35_321
*1382 FILLER_0_35_334
*1383 FILLER_0_35_340
*1384 FILLER_0_35_349
*1385 FILLER_0_35_39
*1386 FILLER_0_35_51
*1387 FILLER_0_35_55
*1388 FILLER_0_35_57
*1389 FILLER_0_35_69
*1390 FILLER_0_35_81
*1391 FILLER_0_35_93
*1392 FILLER_0_36_109
*1393 FILLER_0_36_121
*1394 FILLER_0_36_141
*1395 FILLER_0_36_15
*1396 FILLER_0_36_180
*1397 FILLER_0_36_186
*1398 FILLER_0_36_216
*1399 FILLER_0_36_269
*1400 FILLER_0_36_27
*1401 FILLER_0_36_29
*1402 FILLER_0_36_3
*1403 FILLER_0_36_306
*1404 FILLER_0_36_325
*1405 FILLER_0_36_350
*1406 FILLER_0_36_41
*1407 FILLER_0_36_53
*1408 FILLER_0_36_65
*1409 FILLER_0_36_77
*1410 FILLER_0_36_83
*1411 FILLER_0_36_85
*1412 FILLER_0_36_97
*1413 FILLER_0_37_105
*1414 FILLER_0_37_111
*1415 FILLER_0_37_113
*1416 FILLER_0_37_125
*1417 FILLER_0_37_137
*1418 FILLER_0_37_143
*1419 FILLER_0_37_15
*1420 FILLER_0_37_155
*1421 FILLER_0_37_166
*1422 FILLER_0_37_175
*1423 FILLER_0_37_187
*1424 FILLER_0_37_208
*1425 FILLER_0_37_244
*1426 FILLER_0_37_264
*1427 FILLER_0_37_27
*1428 FILLER_0_37_279
*1429 FILLER_0_37_299
*1430 FILLER_0_37_3
*1431 FILLER_0_37_327
*1432 FILLER_0_37_335
*1433 FILLER_0_37_337
*1434 FILLER_0_37_350
*1435 FILLER_0_37_39
*1436 FILLER_0_37_51
*1437 FILLER_0_37_55
*1438 FILLER_0_37_57
*1439 FILLER_0_37_69
*1440 FILLER_0_37_81
*1441 FILLER_0_37_93
*1442 FILLER_0_38_104
*1443 FILLER_0_38_110
*1444 FILLER_0_38_116
*1445 FILLER_0_38_122
*1446 FILLER_0_38_128
*1447 FILLER_0_38_134
*1448 FILLER_0_38_141
*1449 FILLER_0_38_15
*1450 FILLER_0_38_153
*1451 FILLER_0_38_162
*1452 FILLER_0_38_172
*1453 FILLER_0_38_180
*1454 FILLER_0_38_192
*1455 FILLER_0_38_197
*1456 FILLER_0_38_209
*1457 FILLER_0_38_217
*1458 FILLER_0_38_223
*1459 FILLER_0_38_235
*1460 FILLER_0_38_248
*1461 FILLER_0_38_260
*1462 FILLER_0_38_266
*1463 FILLER_0_38_27
*1464 FILLER_0_38_272
*1465 FILLER_0_38_278
*1466 FILLER_0_38_284
*1467 FILLER_0_38_29
*1468 FILLER_0_38_297
*1469 FILLER_0_38_3
*1470 FILLER_0_38_307
*1471 FILLER_0_38_317
*1472 FILLER_0_38_331
*1473 FILLER_0_38_335
*1474 FILLER_0_38_340
*1475 FILLER_0_38_348
*1476 FILLER_0_38_41
*1477 FILLER_0_38_53
*1478 FILLER_0_38_57
*1479 FILLER_0_38_68
*1480 FILLER_0_38_74
*1481 FILLER_0_38_80
*1482 FILLER_0_38_88
*1483 FILLER_0_38_92
*1484 FILLER_0_38_98
*1485 FILLER_0_3_105
*1486 FILLER_0_3_111
*1487 FILLER_0_3_113
*1488 FILLER_0_3_125
*1489 FILLER_0_3_137
*1490 FILLER_0_3_149
*1491 FILLER_0_3_15
*1492 FILLER_0_3_161
*1493 FILLER_0_3_167
*1494 FILLER_0_3_169
*1495 FILLER_0_3_181
*1496 FILLER_0_3_193
*1497 FILLER_0_3_205
*1498 FILLER_0_3_217
*1499 FILLER_0_3_223
*1500 FILLER_0_3_225
*1501 FILLER_0_3_237
*1502 FILLER_0_3_249
*1503 FILLER_0_3_261
*1504 FILLER_0_3_27
*1505 FILLER_0_3_273
*1506 FILLER_0_3_279
*1507 FILLER_0_3_281
*1508 FILLER_0_3_293
*1509 FILLER_0_3_3
*1510 FILLER_0_3_305
*1511 FILLER_0_3_317
*1512 FILLER_0_3_329
*1513 FILLER_0_3_335
*1514 FILLER_0_3_337
*1515 FILLER_0_3_349
*1516 FILLER_0_3_39
*1517 FILLER_0_3_51
*1518 FILLER_0_3_55
*1519 FILLER_0_3_57
*1520 FILLER_0_3_69
*1521 FILLER_0_3_81
*1522 FILLER_0_3_93
*1523 FILLER_0_4_109
*1524 FILLER_0_4_121
*1525 FILLER_0_4_133
*1526 FILLER_0_4_139
*1527 FILLER_0_4_141
*1528 FILLER_0_4_15
*1529 FILLER_0_4_153
*1530 FILLER_0_4_165
*1531 FILLER_0_4_177
*1532 FILLER_0_4_189
*1533 FILLER_0_4_195
*1534 FILLER_0_4_197
*1535 FILLER_0_4_209
*1536 FILLER_0_4_221
*1537 FILLER_0_4_233
*1538 FILLER_0_4_245
*1539 FILLER_0_4_251
*1540 FILLER_0_4_253
*1541 FILLER_0_4_265
*1542 FILLER_0_4_27
*1543 FILLER_0_4_277
*1544 FILLER_0_4_289
*1545 FILLER_0_4_29
*1546 FILLER_0_4_3
*1547 FILLER_0_4_301
*1548 FILLER_0_4_307
*1549 FILLER_0_4_309
*1550 FILLER_0_4_321
*1551 FILLER_0_4_333
*1552 FILLER_0_4_345
*1553 FILLER_0_4_41
*1554 FILLER_0_4_53
*1555 FILLER_0_4_65
*1556 FILLER_0_4_77
*1557 FILLER_0_4_83
*1558 FILLER_0_4_85
*1559 FILLER_0_4_97
*1560 FILLER_0_5_105
*1561 FILLER_0_5_111
*1562 FILLER_0_5_113
*1563 FILLER_0_5_125
*1564 FILLER_0_5_137
*1565 FILLER_0_5_149
*1566 FILLER_0_5_15
*1567 FILLER_0_5_161
*1568 FILLER_0_5_167
*1569 FILLER_0_5_169
*1570 FILLER_0_5_181
*1571 FILLER_0_5_193
*1572 FILLER_0_5_205
*1573 FILLER_0_5_217
*1574 FILLER_0_5_223
*1575 FILLER_0_5_225
*1576 FILLER_0_5_237
*1577 FILLER_0_5_249
*1578 FILLER_0_5_261
*1579 FILLER_0_5_27
*1580 FILLER_0_5_273
*1581 FILLER_0_5_279
*1582 FILLER_0_5_281
*1583 FILLER_0_5_293
*1584 FILLER_0_5_3
*1585 FILLER_0_5_305
*1586 FILLER_0_5_317
*1587 FILLER_0_5_329