*SPEF "ieee 1481-1999"
*DESIGN "tt_um_SNN"
*DATE "11:11:11 Fri 11 11, 1111"
*VENDOR "OpenRCX"
*PROGRAM "Parallel Extraction"
*VERSION "1.0"
*DESIGN_FLOW "NAME_SCOPE LOCAL" "PIN_CAP NONE"
*DIVIDER /
*DELIMITER :
*BUS_DELIMITER []
*T_UNIT 1 NS
*C_UNIT 1 PF
*R_UNIT 1 OHM
*L_UNIT 1 HENRY

*NAME_MAP
*3 clk
*4 ena
*5 rst_n
*6 ui_in[0]
*7 ui_in[1]
*8 ui_in[2]
*9 ui_in[3]
*10 ui_in[4]
*11 ui_in[5]
*12 ui_in[6]
*13 ui_in[7]
*14 uio_in[0]
*15 uio_in[1]
*16 uio_in[2]
*17 uio_in[3]
*18 uio_in[4]
*19 uio_in[5]
*20 uio_in[6]
*21 uio_in[7]
*22 net4
*23 net5
*24 net6
*25 net7
*26 net8
*27 net9
*28 net10
*29 net11
*30 net12
*31 net13
*32 net14
*33 net15
*34 net16
*35 net17
*36 net18
*37 net19
*38 uo_out[0]
*39 uo_out[1]
*40 net20
*41 net21
*42 net22
*43 net23
*44 net24
*45 net25
*46 _000_
*47 _001_
*48 _002_
*49 _003_
*50 _004_
*51 _005_
*52 _006_
*53 _007_
*54 _008_
*55 _010_
*56 _011_
*57 _012_
*58 _013_
*59 _015_
*60 _016_
*61 _017_
*62 _018_
*63 _020_
*64 _021_
*65 _022_
*66 _023_
*67 _025_
*68 _026_
*69 _027_
*70 _028_
*71 _030_
*72 _031_
*73 _032_
*74 _033_
*75 _034_
*76 _035_
*77 _036_
*78 _037_
*79 _038_
*80 _039_
*81 _040_
*82 _041_
*83 _042_
*84 _043_
*85 _044_
*86 _045_
*87 _046_
*88 _047_
*89 _048_
*90 _049_
*91 _050_
*92 _051_
*93 _052_
*94 _053_
*95 _054_
*96 _055_
*97 _056_
*98 _057_
*99 _058_
*100 _059_
*101 _060_
*102 _061_
*103 _062_
*104 _063_
*105 _064_
*106 _065_
*107 _066_
*108 _067_
*109 _068_
*110 _069_
*111 _070_
*112 _071_
*113 _072_
*114 _073_
*115 _074_
*116 _075_
*117 _076_
*118 _077_
*119 _078_
*120 _079_
*121 _080_
*122 _081_
*123 _082_
*124 _083_
*125 _084_
*126 _085_
*127 _086_
*128 _087_
*129 _088_
*130 _089_
*131 _090_
*132 _091_
*133 _092_
*134 _093_
*135 _094_
*136 _095_
*137 _096_
*138 _097_
*139 _098_
*140 _099_
*141 _100_
*142 _101_
*143 _102_
*144 _103_
*145 _104_
*146 _105_
*147 _106_
*148 _107_
*149 _108_
*150 _109_
*151 _110_
*152 _111_
*153 _112_
*154 _113_
*155 _114_
*156 _115_
*157 _116_
*158 _117_
*159 _118_
*160 _119_
*161 _120_
*162 _121_
*163 _122_
*164 _123_
*165 _124_
*166 _125_
*167 _126_
*168 _127_
*169 _128_
*170 _129_
*171 _130_
*172 _131_
*173 _132_
*174 _133_
*175 _134_
*176 _135_
*177 _136_
*178 _137_
*179 _138_
*180 _139_
*181 _140_
*182 _141_
*183 _142_
*184 _143_
*185 _144_
*186 _145_
*187 _146_
*188 _147_
*189 _148_
*190 _149_
*191 _150_
*192 _151_
*193 _152_
*194 _153_
*195 _154_
*196 _155_
*197 _156_
*198 _157_
*199 _158_
*200 _159_
*201 _160_
*202 _161_
*203 _162_
*204 _163_
*205 _164_
*206 _165_
*207 _166_
*208 _167_
*209 _168_
*210 _169_
*211 _170_
*212 _171_
*213 _172_
*214 _173_
*215 _174_
*216 _175_
*217 _176_
*218 _177_
*219 _178_
*220 _179_
*221 _180_
*222 _181_
*223 _182_
*224 _183_
*225 _184_
*226 _185_
*227 _186_
*228 _187_
*229 _188_
*230 _189_
*231 _190_
*232 _191_
*233 _192_
*234 _193_
*235 _194_
*236 _195_
*237 _196_
*238 clknet_0_clk
*239 clknet_2_0__leaf_clk
*240 clknet_2_1__leaf_clk
*241 clknet_2_2__leaf_clk
*242 clknet_2_3__leaf_clk
*243 net1
*244 net2
*245 net26
*246 net27
*247 net28
*248 net29
*249 net3
*250 net30
*251 net31
*252 net32
*253 net33
*254 spiking_network_demo\.neuron4\.V_i\[0\]
*255 spiking_network_demo\.neuron4\.V_i\[1\]
*256 spiking_network_demo\.neuron4\.V_i\[2\]
*257 spiking_network_demo\.neuron4\.V_i\[3\]
*258 spiking_network_demo\.neuron4\.V_i\[4\]
*259 spiking_network_demo\.neuron4\.neuron_i_reg
*260 spiking_network_demo\.neuron5\.V_i\[0\]
*261 spiking_network_demo\.neuron5\.V_i\[1\]
*262 spiking_network_demo\.neuron5\.V_i\[2\]
*263 spiking_network_demo\.neuron5\.V_i\[3\]
*264 spiking_network_demo\.neuron5\.V_i\[4\]
*265 spiking_network_demo\.neuron5\.neuron_i_reg
*266 spiking_network_demo\.neuron6\.V_i\[0\]
*267 spiking_network_demo\.neuron6\.V_i\[1\]
*268 spiking_network_demo\.neuron6\.V_i\[2\]
*269 spiking_network_demo\.neuron6\.V_i\[3\]
*270 spiking_network_demo\.neuron6\.V_i\[4\]
*271 spiking_network_demo\.neuron6\.neuron_i_reg
*272 spiking_network_demo\.neuron7\.V_i\[0\]
*273 spiking_network_demo\.neuron7\.V_i\[1\]
*274 spiking_network_demo\.neuron7\.V_i\[2\]
*275 spiking_network_demo\.neuron7\.V_i\[3\]
*276 spiking_network_demo\.neuron7\.V_i\[4\]
*277 spiking_network_demo\.neuron7\.neuron_i_reg
*278 spiking_network_demo\.neuron8\.V_i\[0\]
*279 spiking_network_demo\.neuron8\.V_i\[1\]
*280 spiking_network_demo\.neuron8\.V_i\[2\]
*281 spiking_network_demo\.neuron8\.V_i\[3\]
*282 spiking_network_demo\.neuron8\.V_i\[4\]
*283 spiking_network_demo\.neuron8\.neuron_i_reg
*284 FILLER_0_0_109
*285 FILLER_0_0_113
*286 FILLER_0_0_125
*287 FILLER_0_0_137
*288 FILLER_0_0_141
*289 FILLER_0_0_15
*290 FILLER_0_0_153
*291 FILLER_0_0_165
*292 FILLER_0_0_169
*293 FILLER_0_0_181
*294 FILLER_0_0_193
*295 FILLER_0_0_197
*296 FILLER_0_0_209
*297 FILLER_0_0_221
*298 FILLER_0_0_225
*299 FILLER_0_0_237
*300 FILLER_0_0_249
*301 FILLER_0_0_253
*302 FILLER_0_0_265
*303 FILLER_0_0_27
*304 FILLER_0_0_277
*305 FILLER_0_0_281
*306 FILLER_0_0_29
*307 FILLER_0_0_293
*308 FILLER_0_0_3
*309 FILLER_0_0_305
*310 FILLER_0_0_309
*311 FILLER_0_0_321
*312 FILLER_0_0_333
*313 FILLER_0_0_337
*314 FILLER_0_0_349
*315 FILLER_0_0_41
*316 FILLER_0_0_53
*317 FILLER_0_0_57
*318 FILLER_0_0_69
*319 FILLER_0_0_81
*320 FILLER_0_0_85
*321 FILLER_0_0_97
*322 FILLER_0_10_109
*323 FILLER_0_10_121
*324 FILLER_0_10_133
*325 FILLER_0_10_139
*326 FILLER_0_10_141
*327 FILLER_0_10_15
*328 FILLER_0_10_153
*329 FILLER_0_10_165
*330 FILLER_0_10_177
*331 FILLER_0_10_189
*332 FILLER_0_10_195
*333 FILLER_0_10_197
*334 FILLER_0_10_209
*335 FILLER_0_10_221
*336 FILLER_0_10_233
*337 FILLER_0_10_245
*338 FILLER_0_10_251
*339 FILLER_0_10_253
*340 FILLER_0_10_265
*341 FILLER_0_10_27
*342 FILLER_0_10_277
*343 FILLER_0_10_289
*344 FILLER_0_10_29
*345 FILLER_0_10_3
*346 FILLER_0_10_301
*347 FILLER_0_10_307
*348 FILLER_0_10_309
*349 FILLER_0_10_321
*350 FILLER_0_10_333
*351 FILLER_0_10_345
*352 FILLER_0_10_41
*353 FILLER_0_10_53
*354 FILLER_0_10_65
*355 FILLER_0_10_77
*356 FILLER_0_10_83
*357 FILLER_0_10_85
*358 FILLER_0_10_97
*359 FILLER_0_11_105
*360 FILLER_0_11_111
*361 FILLER_0_11_113
*362 FILLER_0_11_125
*363 FILLER_0_11_137
*364 FILLER_0_11_149
*365 FILLER_0_11_15
*366 FILLER_0_11_161
*367 FILLER_0_11_167
*368 FILLER_0_11_169
*369 FILLER_0_11_181
*370 FILLER_0_11_193
*371 FILLER_0_11_205
*372 FILLER_0_11_217
*373 FILLER_0_11_223
*374 FILLER_0_11_225
*375 FILLER_0_11_237
*376 FILLER_0_11_249
*377 FILLER_0_11_261
*378 FILLER_0_11_27
*379 FILLER_0_11_273
*380 FILLER_0_11_279
*381 FILLER_0_11_281
*382 FILLER_0_11_293
*383 FILLER_0_11_3
*384 FILLER_0_11_305
*385 FILLER_0_11_317
*386 FILLER_0_11_329
*387 FILLER_0_11_335
*388 FILLER_0_11_337
*389 FILLER_0_11_349
*390 FILLER_0_11_39
*391 FILLER_0_11_51
*392 FILLER_0_11_55
*393 FILLER_0_11_57
*394 FILLER_0_11_69
*395 FILLER_0_11_81
*396 FILLER_0_11_93
*397 FILLER_0_12_109
*398 FILLER_0_12_121
*399 FILLER_0_12_133
*400 FILLER_0_12_139
*401 FILLER_0_12_141
*402 FILLER_0_12_15
*403 FILLER_0_12_153
*404 FILLER_0_12_165
*405 FILLER_0_12_177
*406 FILLER_0_12_189
*407 FILLER_0_12_195
*408 FILLER_0_12_197
*409 FILLER_0_12_209
*410 FILLER_0_12_221
*411 FILLER_0_12_233
*412 FILLER_0_12_245
*413 FILLER_0_12_251
*414 FILLER_0_12_253
*415 FILLER_0_12_265
*416 FILLER_0_12_27
*417 FILLER_0_12_277
*418 FILLER_0_12_289
*419 FILLER_0_12_29
*420 FILLER_0_12_3
*421 FILLER_0_12_301
*422 FILLER_0_12_307
*423 FILLER_0_12_309
*424 FILLER_0_12_321
*425 FILLER_0_12_333
*426 FILLER_0_12_345
*427 FILLER_0_12_41
*428 FILLER_0_12_53
*429 FILLER_0_12_65
*430 FILLER_0_12_77
*431 FILLER_0_12_83
*432 FILLER_0_12_85
*433 FILLER_0_12_97
*434 FILLER_0_13_105
*435 FILLER_0_13_111
*436 FILLER_0_13_113
*437 FILLER_0_13_125
*438 FILLER_0_13_137
*439 FILLER_0_13_149
*440 FILLER_0_13_15
*441 FILLER_0_13_161
*442 FILLER_0_13_167
*443 FILLER_0_13_169
*444 FILLER_0_13_181
*445 FILLER_0_13_193
*446 FILLER_0_13_205
*447 FILLER_0_13_217
*448 FILLER_0_13_223
*449 FILLER_0_13_225
*450 FILLER_0_13_237
*451 FILLER_0_13_249
*452 FILLER_0_13_261
*453 FILLER_0_13_27
*454 FILLER_0_13_273
*455 FILLER_0_13_279
*456 FILLER_0_13_281
*457 FILLER_0_13_293
*458 FILLER_0_13_3
*459 FILLER_0_13_305
*460 FILLER_0_13_317
*461 FILLER_0_13_329
*462 FILLER_0_13_335
*463 FILLER_0_13_337
*464 FILLER_0_13_349
*465 FILLER_0_13_39
*466 FILLER_0_13_51
*467 FILLER_0_13_55
*468 FILLER_0_13_57
*469 FILLER_0_13_69
*470 FILLER_0_13_81
*471 FILLER_0_13_93
*472 FILLER_0_14_109
*473 FILLER_0_14_121
*474 FILLER_0_14_133
*475 FILLER_0_14_139
*476 FILLER_0_14_141
*477 FILLER_0_14_15
*478 FILLER_0_14_153
*479 FILLER_0_14_165
*480 FILLER_0_14_177
*481 FILLER_0_14_189
*482 FILLER_0_14_195
*483 FILLER_0_14_197
*484 FILLER_0_14_209
*485 FILLER_0_14_221
*486 FILLER_0_14_233
*487 FILLER_0_14_245
*488 FILLER_0_14_251
*489 FILLER_0_14_253
*490 FILLER_0_14_265
*491 FILLER_0_14_27
*492 FILLER_0_14_277
*493 FILLER_0_14_289
*494 FILLER_0_14_29
*495 FILLER_0_14_3
*496 FILLER_0_14_301
*497 FILLER_0_14_307
*498 FILLER_0_14_309
*499 FILLER_0_14_321
*500 FILLER_0_14_333
*501 FILLER_0_14_345
*502 FILLER_0_14_41
*503 FILLER_0_14_53
*504 FILLER_0_14_65
*505 FILLER_0_14_77
*506 FILLER_0_14_83
*507 FILLER_0_14_85
*508 FILLER_0_14_97
*509 FILLER_0_15_105
*510 FILLER_0_15_111
*511 FILLER_0_15_113
*512 FILLER_0_15_125
*513 FILLER_0_15_137
*514 FILLER_0_15_149
*515 FILLER_0_15_15
*516 FILLER_0_15_161
*517 FILLER_0_15_167
*518 FILLER_0_15_169
*519 FILLER_0_15_181
*520 FILLER_0_15_193
*521 FILLER_0_15_205
*522 FILLER_0_15_217
*523 FILLER_0_15_223
*524 FILLER_0_15_225
*525 FILLER_0_15_237
*526 FILLER_0_15_249
*527 FILLER_0_15_261
*528 FILLER_0_15_27
*529 FILLER_0_15_273
*530 FILLER_0_15_279
*531 FILLER_0_15_281
*532 FILLER_0_15_293
*533 FILLER_0_15_3
*534 FILLER_0_15_305
*535 FILLER_0_15_317
*536 FILLER_0_15_329
*537 FILLER_0_15_335
*538 FILLER_0_15_337
*539 FILLER_0_15_349
*540 FILLER_0_15_39
*541 FILLER_0_15_51
*542 FILLER_0_15_55
*543 FILLER_0_15_57
*544 FILLER_0_15_69
*545 FILLER_0_15_81
*546 FILLER_0_15_93
*547 FILLER_0_16_109
*548 FILLER_0_16_121
*549 FILLER_0_16_133
*550 FILLER_0_16_139
*551 FILLER_0_16_141
*552 FILLER_0_16_15
*553 FILLER_0_16_153
*554 FILLER_0_16_165
*555 FILLER_0_16_177
*556 FILLER_0_16_189
*557 FILLER_0_16_195
*558 FILLER_0_16_197
*559 FILLER_0_16_209
*560 FILLER_0_16_221
*561 FILLER_0_16_233
*562 FILLER_0_16_245
*563 FILLER_0_16_251
*564 FILLER_0_16_253
*565 FILLER_0_16_265
*566 FILLER_0_16_27
*567 FILLER_0_16_277
*568 FILLER_0_16_289
*569 FILLER_0_16_29
*570 FILLER_0_16_3
*571 FILLER_0_16_301
*572 FILLER_0_16_307
*573 FILLER_0_16_309
*574 FILLER_0_16_321
*575 FILLER_0_16_333
*576 FILLER_0_16_345
*577 FILLER_0_16_41
*578 FILLER_0_16_53
*579 FILLER_0_16_65
*580 FILLER_0_16_77
*581 FILLER_0_16_83
*582 FILLER_0_16_85
*583 FILLER_0_16_97
*584 FILLER_0_17_105
*585 FILLER_0_17_111
*586 FILLER_0_17_113
*587 FILLER_0_17_125
*588 FILLER_0_17_137
*589 FILLER_0_17_149
*590 FILLER_0_17_15
*591 FILLER_0_17_161
*592 FILLER_0_17_167
*593 FILLER_0_17_169
*594 FILLER_0_17_181
*595 FILLER_0_17_193
*596 FILLER_0_17_205
*597 FILLER_0_17_217
*598 FILLER_0_17_223
*599 FILLER_0_17_225
*600 FILLER_0_17_237
*601 FILLER_0_17_249
*602 FILLER_0_17_261
*603 FILLER_0_17_27
*604 FILLER_0_17_273
*605 FILLER_0_17_279
*606 FILLER_0_17_281
*607 FILLER_0_17_293
*608 FILLER_0_17_3
*609 FILLER_0_17_305
*610 FILLER_0_17_317
*611 FILLER_0_17_329
*612 FILLER_0_17_335
*613 FILLER_0_17_337
*614 FILLER_0_17_349
*615 FILLER_0_17_39
*616 FILLER_0_17_51
*617 FILLER_0_17_55
*618 FILLER_0_17_57
*619 FILLER_0_17_69
*620 FILLER_0_17_81
*621 FILLER_0_17_93
*622 FILLER_0_18_109
*623 FILLER_0_18_121
*624 FILLER_0_18_133
*625 FILLER_0_18_139
*626 FILLER_0_18_141
*627 FILLER_0_18_15
*628 FILLER_0_18_153
*629 FILLER_0_18_165
*630 FILLER_0_18_177
*631 FILLER_0_18_189
*632 FILLER_0_18_195
*633 FILLER_0_18_197
*634 FILLER_0_18_209
*635 FILLER_0_18_221
*636 FILLER_0_18_233
*637 FILLER_0_18_245
*638 FILLER_0_18_251
*639 FILLER_0_18_253
*640 FILLER_0_18_265
*641 FILLER_0_18_27
*642 FILLER_0_18_277
*643 FILLER_0_18_289
*644 FILLER_0_18_29
*645 FILLER_0_18_3
*646 FILLER_0_18_301
*647 FILLER_0_18_307
*648 FILLER_0_18_309
*649 FILLER_0_18_321
*650 FILLER_0_18_333
*651 FILLER_0_18_345
*652 FILLER_0_18_41
*653 FILLER_0_18_53
*654 FILLER_0_18_65
*655 FILLER_0_18_77
*656 FILLER_0_18_83
*657 FILLER_0_18_85
*658 FILLER_0_18_97
*659 FILLER_0_19_105
*660 FILLER_0_19_111
*661 FILLER_0_19_113
*662 FILLER_0_19_125
*663 FILLER_0_19_137
*664 FILLER_0_19_149
*665 FILLER_0_19_15
*666 FILLER_0_19_161
*667 FILLER_0_19_167
*668 FILLER_0_19_169
*669 FILLER_0_19_181
*670 FILLER_0_19_193
*671 FILLER_0_19_205
*672 FILLER_0_19_217
*673 FILLER_0_19_223
*674 FILLER_0_19_225
*675 FILLER_0_19_237
*676 FILLER_0_19_249
*677 FILLER_0_19_261
*678 FILLER_0_19_27
*679 FILLER_0_19_273
*680 FILLER_0_19_279
*681 FILLER_0_19_281
*682 FILLER_0_19_293
*683 FILLER_0_19_3
*684 FILLER_0_19_305
*685 FILLER_0_19_317
*686 FILLER_0_19_329
*687 FILLER_0_19_335
*688 FILLER_0_19_337
*689 FILLER_0_19_349
*690 FILLER_0_19_39
*691 FILLER_0_19_51
*692 FILLER_0_19_55
*693 FILLER_0_19_57
*694 FILLER_0_19_69
*695 FILLER_0_19_81
*696 FILLER_0_19_93
*697 FILLER_0_1_105
*698 FILLER_0_1_111
*699 FILLER_0_1_113
*700 FILLER_0_1_125
*701 FILLER_0_1_137
*702 FILLER_0_1_149
*703 FILLER_0_1_15
*704 FILLER_0_1_161
*705 FILLER_0_1_167
*706 FILLER_0_1_169
*707 FILLER_0_1_181
*708 FILLER_0_1_193
*709 FILLER_0_1_205
*710 FILLER_0_1_217
*711 FILLER_0_1_223
*712 FILLER_0_1_225
*713 FILLER_0_1_237
*714 FILLER_0_1_249
*715 FILLER_0_1_261
*716 FILLER_0_1_27
*717 FILLER_0_1_273
*718 FILLER_0_1_279
*719 FILLER_0_1_281
*720 FILLER_0_1_293
*721 FILLER_0_1_3
*722 FILLER_0_1_305
*723 FILLER_0_1_317
*724 FILLER_0_1_329
*725 FILLER_0_1_335
*726 FILLER_0_1_337
*727 FILLER_0_1_349
*728 FILLER_0_1_39
*729 FILLER_0_1_51
*730 FILLER_0_1_55
*731 FILLER_0_1_57
*732 FILLER_0_1_69
*733 FILLER_0_1_81
*734 FILLER_0_1_93
*735 FILLER_0_20_109
*736 FILLER_0_20_121
*737 FILLER_0_20_133
*738 FILLER_0_20_139
*739 FILLER_0_20_141
*740 FILLER_0_20_15
*741 FILLER_0_20_153
*742 FILLER_0_20_165
*743 FILLER_0_20_177
*744 FILLER_0_20_189
*745 FILLER_0_20_195
*746 FILLER_0_20_197
*747 FILLER_0_20_209
*748 FILLER_0_20_221
*749 FILLER_0_20_233
*750 FILLER_0_20_245
*751 FILLER_0_20_251
*752 FILLER_0_20_253
*753 FILLER_0_20_265
*754 FILLER_0_20_27
*755 FILLER_0_20_277
*756 FILLER_0_20_289
*757 FILLER_0_20_29
*758 FILLER_0_20_3
*759 FILLER_0_20_301
*760 FILLER_0_20_307
*761 FILLER_0_20_309
*762 FILLER_0_20_321
*763 FILLER_0_20_333
*764 FILLER_0_20_345
*765 FILLER_0_20_41
*766 FILLER_0_20_53
*767 FILLER_0_20_65
*768 FILLER_0_20_77
*769 FILLER_0_20_83
*770 FILLER_0_20_85
*771 FILLER_0_20_97
*772 FILLER_0_21_105
*773 FILLER_0_21_111
*774 FILLER_0_21_113
*775 FILLER_0_21_125
*776 FILLER_0_21_137
*777 FILLER_0_21_149
*778 FILLER_0_21_15
*779 FILLER_0_21_161
*780 FILLER_0_21_167
*781 FILLER_0_21_169
*782 FILLER_0_21_181
*783 FILLER_0_21_193
*784 FILLER_0_21_205
*785 FILLER_0_21_217
*786 FILLER_0_21_223
*787 FILLER_0_21_225
*788 FILLER_0_21_237
*789 FILLER_0_21_249
*790 FILLER_0_21_261
*791 FILLER_0_21_27
*792 FILLER_0_21_273
*793 FILLER_0_21_279
*794 FILLER_0_21_281
*795 FILLER_0_21_293
*796 FILLER_0_21_3
*797 FILLER_0_21_305
*798 FILLER_0_21_317
*799 FILLER_0_21_329
*800 FILLER_0_21_335
*801 FILLER_0_21_337
*802 FILLER_0_21_349
*803 FILLER_0_21_39
*804 FILLER_0_21_51
*805 FILLER_0_21_55
*806 FILLER_0_21_57
*807 FILLER_0_21_69
*808 FILLER_0_21_81
*809 FILLER_0_21_93
*810 FILLER_0_22_109
*811 FILLER_0_22_121
*812 FILLER_0_22_133
*813 FILLER_0_22_139
*814 FILLER_0_22_141
*815 FILLER_0_22_15
*816 FILLER_0_22_153
*817 FILLER_0_22_165
*818 FILLER_0_22_177
*819 FILLER_0_22_189
*820 FILLER_0_22_195
*821 FILLER_0_22_197
*822 FILLER_0_22_209
*823 FILLER_0_22_221
*824 FILLER_0_22_233
*825 FILLER_0_22_245
*826 FILLER_0_22_251
*827 FILLER_0_22_253
*828 FILLER_0_22_265
*829 FILLER_0_22_27
*830 FILLER_0_22_277
*831 FILLER_0_22_289
*832 FILLER_0_22_29
*833 FILLER_0_22_3
*834 FILLER_0_22_301
*835 FILLER_0_22_307
*836 FILLER_0_22_309
*837 FILLER_0_22_321
*838 FILLER_0_22_333
*839 FILLER_0_22_345
*840 FILLER_0_22_41
*841 FILLER_0_22_53
*842 FILLER_0_22_65
*843 FILLER_0_22_77
*844 FILLER_0_22_83
*845 FILLER_0_22_85
*846 FILLER_0_22_97
*847 FILLER_0_23_105
*848 FILLER_0_23_111
*849 FILLER_0_23_113
*850 FILLER_0_23_125
*851 FILLER_0_23_137
*852 FILLER_0_23_149
*853 FILLER_0_23_15
*854 FILLER_0_23_161
*855 FILLER_0_23_167
*856 FILLER_0_23_169
*857 FILLER_0_23_181
*858 FILLER_0_23_193
*859 FILLER_0_23_205
*860 FILLER_0_23_217
*861 FILLER_0_23_223
*862 FILLER_0_23_225
*863 FILLER_0_23_237
*864 FILLER_0_23_249
*865 FILLER_0_23_261
*866 FILLER_0_23_27
*867 FILLER_0_23_273
*868 FILLER_0_23_279
*869 FILLER_0_23_281
*870 FILLER_0_23_293
*871 FILLER_0_23_3
*872 FILLER_0_23_305
*873 FILLER_0_23_317
*874 FILLER_0_23_329
*875 FILLER_0_23_335
*876 FILLER_0_23_337
*877 FILLER_0_23_349
*878 FILLER_0_23_39
*879 FILLER_0_23_51
*880 FILLER_0_23_55
*881 FILLER_0_23_57
*882 FILLER_0_23_69
*883 FILLER_0_23_81
*884 FILLER_0_23_93
*885 FILLER_0_24_109
*886 FILLER_0_24_121
*887 FILLER_0_24_133
*888 FILLER_0_24_139
*889 FILLER_0_24_141
*890 FILLER_0_24_15
*891 FILLER_0_24_162
*892 FILLER_0_24_166
*893 FILLER_0_24_181
*894 FILLER_0_24_193
*895 FILLER_0_24_197
*896 FILLER_0_24_209
*897 FILLER_0_24_221
*898 FILLER_0_24_233
*899 FILLER_0_24_245
*900 FILLER_0_24_251
*901 FILLER_0_24_253
*902 FILLER_0_24_259
*903 FILLER_0_24_27
*904 FILLER_0_24_29
*905 FILLER_0_24_296
*906 FILLER_0_24_3
*907 FILLER_0_24_309
*908 FILLER_0_24_321
*909 FILLER_0_24_333
*910 FILLER_0_24_345
*911 FILLER_0_24_41
*912 FILLER_0_24_53
*913 FILLER_0_24_65
*914 FILLER_0_24_77
*915 FILLER_0_24_83
*916 FILLER_0_24_85
*917 FILLER_0_24_97
*918 FILLER_0_25_105
*919 FILLER_0_25_111
*920 FILLER_0_25_113
*921 FILLER_0_25_144
*922 FILLER_0_25_148
*923 FILLER_0_25_15
*924 FILLER_0_25_156
*925 FILLER_0_25_177
*926 FILLER_0_25_187
*927 FILLER_0_25_198
*928 FILLER_0_25_220
*929 FILLER_0_25_254
*930 FILLER_0_25_260
*931 FILLER_0_25_27
*932 FILLER_0_25_272
*933 FILLER_0_25_297
*934 FILLER_0_25_3
*935 FILLER_0_25_309
*936 FILLER_0_25_321
*937 FILLER_0_25_333
*938 FILLER_0_25_337
*939 FILLER_0_25_349
*940 FILLER_0_25_39
*941 FILLER_0_25_51
*942 FILLER_0_25_55
*943 FILLER_0_25_57
*944 FILLER_0_25_69
*945 FILLER_0_25_81
*946 FILLER_0_25_93
*947 FILLER_0_26_109
*948 FILLER_0_26_121
*949 FILLER_0_26_127
*950 FILLER_0_26_139
*951 FILLER_0_26_141
*952 FILLER_0_26_15
*953 FILLER_0_26_162
*954 FILLER_0_26_193
*955 FILLER_0_26_197
*956 FILLER_0_26_215
*957 FILLER_0_26_223
*958 FILLER_0_26_227
*959 FILLER_0_26_239
*960 FILLER_0_26_247
*961 FILLER_0_26_268
*962 FILLER_0_26_27
*963 FILLER_0_26_29
*964 FILLER_0_26_3
*965 FILLER_0_26_304
*966 FILLER_0_26_309
*967 FILLER_0_26_321
*968 FILLER_0_26_333
*969 FILLER_0_26_345
*970 FILLER_0_26_41
*971 FILLER_0_26_53
*972 FILLER_0_26_65
*973 FILLER_0_26_77
*974 FILLER_0_26_83
*975 FILLER_0_26_85
*976 FILLER_0_26_97
*977 FILLER_0_27_105
*978 FILLER_0_27_111
*979 FILLER_0_27_113
*980 FILLER_0_27_125
*981 FILLER_0_27_137
*982 FILLER_0_27_149
*983 FILLER_0_27_15
*984 FILLER_0_27_161
*985 FILLER_0_27_167
*986 FILLER_0_27_169
*987 FILLER_0_27_180
*988 FILLER_0_27_187
*989 FILLER_0_27_195
*990 FILLER_0_27_200
*991 FILLER_0_27_223
*992 FILLER_0_27_225
*993 FILLER_0_27_237
*994 FILLER_0_27_243
*995 FILLER_0_27_27
*996 FILLER_0_27_271
*997 FILLER_0_27_279
*998 FILLER_0_27_281
*999 FILLER_0_27_287
*1000 FILLER_0_27_299
*1001 FILLER_0_27_3
*1002 FILLER_0_27_311
*1003 FILLER_0_27_323
*1004 FILLER_0_27_335
*1005 FILLER_0_27_337
*1006 FILLER_0_27_349
*1007 FILLER_0_27_39
*1008 FILLER_0_27_51
*1009 FILLER_0_27_55
*1010 FILLER_0_27_57
*1011 FILLER_0_27_69
*1012 FILLER_0_27_81
*1013 FILLER_0_27_93
*1014 FILLER_0_28_109
*1015 FILLER_0_28_133
*1016 FILLER_0_28_139
*1017 FILLER_0_28_141
*1018 FILLER_0_28_15
*1019 FILLER_0_28_153
*1020 FILLER_0_28_165
*1021 FILLER_0_28_171
*1022 FILLER_0_28_188
*1023 FILLER_0_28_197
*1024 FILLER_0_28_209
*1025 FILLER_0_28_213
*1026 FILLER_0_28_221
*1027 FILLER_0_28_233
*1028 FILLER_0_28_245
*1029 FILLER_0_28_253
*1030 FILLER_0_28_265
*1031 FILLER_0_28_27
*1032 FILLER_0_28_273
*1033 FILLER_0_28_289
*1034 FILLER_0_28_29
*1035 FILLER_0_28_3
*1036 FILLER_0_28_300
*1037 FILLER_0_28_309
*1038 FILLER_0_28_321
*1039 FILLER_0_28_329
*1040 FILLER_0_28_346
*1041 FILLER_0_28_350
*1042 FILLER_0_28_41
*1043 FILLER_0_28_53
*1044 FILLER_0_28_65
*1045 FILLER_0_28_77
*1046 FILLER_0_28_83
*1047 FILLER_0_28_85
*1048 FILLER_0_28_97
*1049 FILLER_0_29_105
*1050 FILLER_0_29_142
*1051 FILLER_0_29_15
*1052 FILLER_0_29_154
*1053 FILLER_0_29_166
*1054 FILLER_0_29_169
*1055 FILLER_0_29_173
*1056 FILLER_0_29_182
*1057 FILLER_0_29_194
*1058 FILLER_0_29_223
*1059 FILLER_0_29_230
*1060 FILLER_0_29_248
*1061 FILLER_0_29_260
*1062 FILLER_0_29_268
*1063 FILLER_0_29_27
*1064 FILLER_0_29_273
*1065 FILLER_0_29_279
*1066 FILLER_0_29_281
*1067 FILLER_0_29_3
*1068 FILLER_0_29_302
*1069 FILLER_0_29_314
*1070 FILLER_0_29_326
*1071 FILLER_0_29_334
*1072 FILLER_0_29_337
*1073 FILLER_0_29_349
*1074 FILLER_0_29_39
*1075 FILLER_0_29_51
*1076 FILLER_0_29_55
*1077 FILLER_0_29_57
*1078 FILLER_0_29_69
*1079 FILLER_0_29_81
*1080 FILLER_0_29_93
*1081 FILLER_0_2_109
*1082 FILLER_0_2_121
*1083 FILLER_0_2_133
*1084 FILLER_0_2_139
*1085 FILLER_0_2_141
*1086 FILLER_0_2_15
*1087 FILLER_0_2_153
*1088 FILLER_0_2_165
*1089 FILLER_0_2_177
*1090 FILLER_0_2_189
*1091 FILLER_0_2_195
*1092 FILLER_0_2_197
*1093 FILLER_0_2_209
*1094 FILLER_0_2_221
*1095 FILLER_0_2_233
*1096 FILLER_0_2_245
*1097 FILLER_0_2_251
*1098 FILLER_0_2_253
*1099 FILLER_0_2_265
*1100 FILLER_0_2_27
*1101 FILLER_0_2_277
*1102 FILLER_0_2_289
*1103 FILLER_0_2_29
*1104 FILLER_0_2_3
*1105 FILLER_0_2_301
*1106 FILLER_0_2_307
*1107 FILLER_0_2_309
*1108 FILLER_0_2_321
*1109 FILLER_0_2_333
*1110 FILLER_0_2_345
*1111 FILLER_0_2_41
*1112 FILLER_0_2_53
*1113 FILLER_0_2_65
*1114 FILLER_0_2_77
*1115 FILLER_0_2_83
*1116 FILLER_0_2_85
*1117 FILLER_0_2_97
*1118 FILLER_0_30_15
*1119 FILLER_0_30_152
*1120 FILLER_0_30_160
*1121 FILLER_0_30_192
*1122 FILLER_0_30_228
*1123 FILLER_0_30_246
*1124 FILLER_0_30_259
*1125 FILLER_0_30_27
*1126 FILLER_0_30_278
*1127 FILLER_0_30_29
*1128 FILLER_0_30_291
*1129 FILLER_0_30_3
*1130 FILLER_0_30_303
*1131 FILLER_0_30_307
*1132 FILLER_0_30_309
*1133 FILLER_0_30_323
*1134 FILLER_0_30_341
*1135 FILLER_0_30_349
*1136 FILLER_0_30_41
*1137 FILLER_0_30_53
*1138 FILLER_0_30_65
*1139 FILLER_0_30_77
*1140 FILLER_0_30_83
*1141 FILLER_0_30_85
*1142 FILLER_0_30_97
*1143 FILLER_0_31_105
*1144 FILLER_0_31_111
*1145 FILLER_0_31_113
*1146 FILLER_0_31_136
*1147 FILLER_0_31_148
*1148 FILLER_0_31_15
*1149 FILLER_0_31_160
*1150 FILLER_0_31_164
*1151 FILLER_0_31_182
*1152 FILLER_0_31_194
*1153 FILLER_0_31_209
*1154 FILLER_0_31_213
*1155 FILLER_0_31_217
*1156 FILLER_0_31_223
*1157 FILLER_0_31_245
*1158 FILLER_0_31_265
*1159 FILLER_0_31_27
*1160 FILLER_0_31_278
*1161 FILLER_0_31_281
*1162 FILLER_0_31_293
*1163 FILLER_0_31_299
*1164 FILLER_0_31_3
*1165 FILLER_0_31_333
*1166 FILLER_0_31_337
*1167 FILLER_0_31_349
*1168 FILLER_0_31_39
*1169 FILLER_0_31_51
*1170 FILLER_0_31_55
*1171 FILLER_0_31_57
*1172 FILLER_0_31_69
*1173 FILLER_0_31_81
*1174 FILLER_0_31_93
*1175 FILLER_0_32_101
*1176 FILLER_0_32_118
*1177 FILLER_0_32_122
*1178 FILLER_0_32_134
*1179 FILLER_0_32_141
*1180 FILLER_0_32_15
*1181 FILLER_0_32_153
*1182 FILLER_0_32_165
*1183 FILLER_0_32_174
*1184 FILLER_0_32_193
*1185 FILLER_0_32_197
*1186 FILLER_0_32_209
*1187 FILLER_0_32_213
*1188 FILLER_0_32_231
*1189 FILLER_0_32_243
*1190 FILLER_0_32_251
*1191 FILLER_0_32_253
*1192 FILLER_0_32_259
*1193 FILLER_0_32_27
*1194 FILLER_0_32_276
*1195 FILLER_0_32_29
*1196 FILLER_0_32_297
*1197 FILLER_0_32_3
*1198 FILLER_0_32_303
*1199 FILLER_0_32_307
*1200 FILLER_0_32_312
*1201 FILLER_0_32_330
*1202 FILLER_0_32_342
*1203 FILLER_0_32_350
*1204 FILLER_0_32_41
*1205 FILLER_0_32_53
*1206 FILLER_0_32_65
*1207 FILLER_0_32_77
*1208 FILLER_0_32_83
*1209 FILLER_0_32_85
*1210 FILLER_0_32_97
*1211 FILLER_0_33_105
*1212 FILLER_0_33_111
*1213 FILLER_0_33_127
*1214 FILLER_0_33_139
*1215 FILLER_0_33_144
*1216 FILLER_0_33_15
*1217 FILLER_0_33_156
*1218 FILLER_0_33_169
*1219 FILLER_0_33_181
*1220 FILLER_0_33_189
*1221 FILLER_0_33_209
*1222 FILLER_0_33_221
*1223 FILLER_0_33_230
*1224 FILLER_0_33_234
*1225 FILLER_0_33_246
*1226 FILLER_0_33_258
*1227 FILLER_0_33_27
*1228 FILLER_0_33_277
*1229 FILLER_0_33_281
*1230 FILLER_0_33_293
*1231 FILLER_0_33_299
*1232 FILLER_0_33_3
*1233 FILLER_0_33_316
*1234 FILLER_0_33_325
*1235 FILLER_0_33_337
*1236 FILLER_0_33_349
*1237 FILLER_0_33_39
*1238 FILLER_0_33_51
*1239 FILLER_0_33_55
*1240 FILLER_0_33_57
*1241 FILLER_0_33_69
*1242 FILLER_0_33_81
*1243 FILLER_0_33_93
*1244 FILLER_0_34_105
*1245 FILLER_0_34_139
*1246 FILLER_0_34_141
*1247 FILLER_0_34_15
*1248 FILLER_0_34_181
*1249 FILLER_0_34_192
*1250 FILLER_0_34_197
*1251 FILLER_0_34_205
*1252 FILLER_0_34_211
*1253 FILLER_0_34_217
*1254 FILLER_0_34_231
*1255 FILLER_0_34_248
*1256 FILLER_0_34_253
*1257 FILLER_0_34_259
*1258 FILLER_0_34_27
*1259 FILLER_0_34_283
*1260 FILLER_0_34_29
*1261 FILLER_0_34_295
*1262 FILLER_0_34_3
*1263 FILLER_0_34_307
*1264 FILLER_0_34_309
*1265 FILLER_0_34_317
*1266 FILLER_0_34_326
*1267 FILLER_0_34_344
*1268 FILLER_0_34_350
*1269 FILLER_0_34_41
*1270 FILLER_0_34_53
*1271 FILLER_0_34_65
*1272 FILLER_0_34_77
*1273 FILLER_0_34_83
*1274 FILLER_0_34_85
*1275 FILLER_0_34_97
*1276 FILLER_0_35_105
*1277 FILLER_0_35_111
*1278 FILLER_0_35_113
*1279 FILLER_0_35_121
*1280 FILLER_0_35_125
*1281 FILLER_0_35_137
*1282 FILLER_0_35_149
*1283 FILLER_0_35_15
*1284 FILLER_0_35_161
*1285 FILLER_0_35_167
*1286 FILLER_0_35_169
*1287 FILLER_0_35_181
*1288 FILLER_0_35_188
*1289 FILLER_0_35_210
*1290 FILLER_0_35_218
*1291 FILLER_0_35_225
*1292 FILLER_0_35_234
*1293 FILLER_0_35_255
*1294 FILLER_0_35_267
*1295 FILLER_0_35_27
*1296 FILLER_0_35_281
*1297 FILLER_0_35_293
*1298 FILLER_0_35_3
*1299 FILLER_0_35_305
*1300 FILLER_0_35_334
*1301 FILLER_0_35_340
*1302 FILLER_0_35_348
*1303 FILLER_0_35_39
*1304 FILLER_0_35_51
*1305 FILLER_0_35_55
*1306 FILLER_0_35_57
*1307 FILLER_0_35_69
*1308 FILLER_0_35_81
*1309 FILLER_0_35_93
*1310 FILLER_0_36_109
*1311 FILLER_0_36_120
*1312 FILLER_0_36_132
*1313 FILLER_0_36_15
*1314 FILLER_0_36_157
*1315 FILLER_0_36_168
*1316 FILLER_0_36_174
*1317 FILLER_0_36_182
*1318 FILLER_0_36_186
*1319 FILLER_0_36_195
*1320 FILLER_0_36_211
*1321 FILLER_0_36_223
*1322 FILLER_0_36_235
*1323 FILLER_0_36_265
*1324 FILLER_0_36_269
*1325 FILLER_0_36_27
*1326 FILLER_0_36_273
*1327 FILLER_0_36_29
*1328 FILLER_0_36_3
*1329 FILLER_0_36_301
*1330 FILLER_0_36_307
*1331 FILLER_0_36_322
*1332 FILLER_0_36_346
*1333 FILLER_0_36_350
*1334 FILLER_0_36_41
*1335 FILLER_0_36_53
*1336 FILLER_0_36_65
*1337 FILLER_0_36_77
*1338 FILLER_0_36_83
*1339 FILLER_0_36_85
*1340 FILLER_0_36_97
*1341 FILLER_0_37_105
*1342 FILLER_0_37_111
*1343 FILLER_0_37_113
*1344 FILLER_0_37_130
*1345 FILLER_0_37_142
*1346 FILLER_0_37_15
*1347 FILLER_0_37_166
*1348 FILLER_0_37_169
*1349 FILLER_0_37_181
*1350 FILLER_0_37_214
*1351 FILLER_0_37_222
*1352 FILLER_0_37_225
*1353 FILLER_0_37_27
*1354 FILLER_0_37_279
*1355 FILLER_0_37_288
*1356 FILLER_0_37_3
*1357 FILLER_0_37_301
*1358 FILLER_0_37_330
*1359 FILLER_0_37_337
*1360 FILLER_0_37_349
*1361 FILLER_0_37_39
*1362 FILLER_0_37_51
*1363 FILLER_0_37_55
*1364 FILLER_0_37_57
*1365 FILLER_0_37_69
*1366 FILLER_0_37_81
*1367 FILLER_0_37_93
*1368 FILLER_0_38_104
*1369 FILLER_0_38_110
*1370 FILLER_0_38_116
*1371 FILLER_0_38_122
*1372 FILLER_0_38_128
*1373 FILLER_0_38_134
*1374 FILLER_0_38_141
*1375 FILLER_0_38_146
*1376 FILLER_0_38_15
*1377 FILLER_0_38_153
*1378 FILLER_0_38_158
*1379 FILLER_0_38_164
*1380 FILLER_0_38_172
*1381 FILLER_0_38_176
*1382 FILLER_0_38_182
*1383 FILLER_0_38_188
*1384 FILLER_0_38_194
*1385 FILLER_0_38_197
*1386 FILLER_0_38_207
*1387 FILLER_0_38_219
*1388 FILLER_0_38_223
*1389 FILLER_0_38_225
*1390 FILLER_0_38_237
*1391 FILLER_0_38_249
*1392 FILLER_0_38_253
*1393 FILLER_0_38_265
*1394 FILLER_0_38_27
*1395 FILLER_0_38_277
*1396 FILLER_0_38_281
*1397 FILLER_0_38_29
*1398 FILLER_0_38_296
*1399 FILLER_0_38_3
*1400 FILLER_0_38_303
*1401 FILLER_0_38_307
*1402 FILLER_0_38_309
*1403 FILLER_0_38_314
*1404 FILLER_0_38_318
*1405 FILLER_0_38_323
*1406 FILLER_0_38_335
*1407 FILLER_0_38_337
*1408 FILLER_0_38_349
*1409 FILLER_0_38_41
*1410 FILLER_0_38_53
*1411 FILLER_0_38_57
*1412 FILLER_0_38_68
*1413 FILLER_0_38_74
*1414 FILLER_0_38_80
*1415 FILLER_0_38_88
*1416 FILLER_0_38_92
*1417 FILLER_0_38_98
*1418 FILLER_0_3_105
*1419 FILLER_0_3_111
*1420 FILLER_0_3_113
*1421 FILLER_0_3_125
*1422 FILLER_0_3_137
*1423 FILLER_0_3_149
*1424 FILLER_0_3_15
*1425 FILLER_0_3_161
*1426 FILLER_0_3_167
*1427 FILLER_0_3_169
*1428 FILLER_0_3_181
*1429 FILLER_0_3_193
*1430 FILLER_0_3_205
*1431 FILLER_0_3_217
*1432 FILLER_0_3_223
*1433 FILLER_0_3_225
*1434 FILLER_0_3_237
*1435 FILLER_0_3_249
*1436 FILLER_0_3_261
*1437 FILLER_0_3_27
*1438 FILLER_0_3_273
*1439 FILLER_0_3_279
*1440 FILLER_0_3_281
*1441 FILLER_0_3_293
*1442 FILLER_0_3_3
*1443 FILLER_0_3_305
*1444 FILLER_0_3_317
*1445 FILLER_0_3_329
*1446 FILLER_0_3_335
*1447 FILLER_0_3_337
*1448 FILLER_0_3_349
*1449 FILLER_0_3_39
*1450 FILLER_0_3_51
*1451 FILLER_0_3_55
*1452 FILLER_0_3_57
*1453 FILLER_0_3_69
*1454 FILLER_0_3_81
*1455 FILLER_0_3_93
*1456 FILLER_0_4_109
*1457 FILLER_0_4_121
*1458 FILLER_0_4_133
*1459 FILLER_0_4_139
*1460 FILLER_0_4_141
*1461 FILLER_0_4_15
*1462 FILLER_0_4_153
*1463 FILLER_0_4_165
*1464 FILLER_0_4_177
*1465 FILLER_0_4_189
*1466 FILLER_0_4_195
*1467 FILLER_0_4_197
*1468 FILLER_0_4_209
*1469 FILLER_0_4_221
*1470 FILLER_0_4_233
*1471 FILLER_0_4_245
*1472 FILLER_0_4_251
*1473 FILLER_0_4_253
*1474 FILLER_0_4_265
*1475 FILLER_0_4_27
*1476 FILLER_0_4_277
*1477 FILLER_0_4_289
*1478 FILLER_0_4_29
*1479 FILLER_0_4_3
*1480 FILLER_0_4_301
*1481 FILLER_0_4_307
*1482 FILLER_0_4_309
*1483 FILLER_0_4_321
*1484 FILLER_0_4_333
*1485 FILLER_0_4_345
*1486 FILLER_0_4_41
*1487 FILLER_0_4_53
*1488 FILLER_0_4_65
*1489 FILLER_0_4_77
*1490 FILLER_0_4_83
*1491 FILLER_0_4_85
*1492 FILLER_0_4_97
*1493 FILLER_0_5_105
*1494 FILLER_0_5_111
*1495 FILLER_0_5_113
*1496 FILLER_0_5_125
*1497 FILLER_0_5_137
*1498 FILLER_0_5_149
*1499 FILLER_0_5_15
*1500 FILLER_0_5_161
*1501 FILLER_0_5_167
*1502 FILLER_0_5_169
*1503 FILLER_0_5_181
*1504 FILLER_0_5_193