*SPEF "ieee 1481-1999"
*DESIGN "tt_um_Fiona_CMU"
*DATE "11:11:11 Fri 11 11, 1111"
*VENDOR "OpenRCX"
*PROGRAM "Parallel Extraction"
*VERSION "1.0"
*DESIGN_FLOW "NAME_SCOPE LOCAL" "PIN_CAP NONE"
*DIVIDER /
*DELIMITER :
*BUS_DELIMITER []
*T_UNIT 1 NS
*C_UNIT 1 PF
*R_UNIT 1 OHM
*L_UNIT 1 HENRY

*NAME_MAP
*3 clk
*4 ena
*5 rst_n
*6 ui_in[0]
*7 ui_in[1]
*8 ui_in[2]
*9 ui_in[3]
*10 ui_in[4]
*11 ui_in[5]
*12 ui_in[6]
*13 ui_in[7]
*14 uio_in[0]
*15 uio_in[1]
*16 uio_in[2]
*17 uio_in[3]
*18 uio_in[4]
*19 uio_in[5]
*20 uio_in[6]
*21 uio_in[7]
*22 net29
*23 net30
*24 net31
*25 net32
*26 net33
*27 net34
*28 net35
*29 net36
*30 net37
*31 net38
*32 net39
*33 net40
*34 net41
*35 net42
*36 net43
*37 net44
*38 uo_out[0]
*39 uo_out[1]
*40 uo_out[2]
*41 uo_out[3]
*42 uo_out[4]
*43 uo_out[5]
*44 uo_out[6]
*45 uo_out[7]
*46 _000_
*47 _001_
*48 _002_
*49 _003_
*50 _004_
*51 _005_
*52 _006_
*53 _007_
*54 _008_
*55 _009_
*56 _010_
*57 _011_
*58 _012_
*59 _013_
*60 _014_
*61 _015_
*62 _016_
*63 _017_
*64 _018_
*65 _019_
*66 _020_
*67 _021_
*68 _022_
*69 _023_
*70 _024_
*71 _025_
*72 _026_
*73 _027_
*74 _028_
*75 _029_
*76 _030_
*77 _031_
*78 _032_
*79 _033_
*80 _034_
*81 _035_
*82 _036_
*83 _037_
*84 _038_
*85 _039_
*86 _040_
*87 _041_
*88 _042_
*89 _043_
*90 _044_
*91 _045_
*92 _046_
*93 _047_
*94 _048_
*95 _049_
*96 _050_
*97 _051_
*98 _052_
*99 _053_
*100 _054_
*101 _055_
*102 _056_
*103 _057_
*104 _058_
*105 _059_
*106 _060_
*107 _061_
*108 _062_
*109 _063_
*110 _064_
*111 _065_
*112 _066_
*113 _067_
*114 _068_
*115 _069_
*116 _070_
*117 _071_
*118 _072_
*119 _073_
*120 _074_
*121 _075_
*122 _076_
*123 _077_
*124 _078_
*125 _079_
*126 _080_
*127 _081_
*128 _082_
*129 _083_
*130 _084_
*131 _085_
*132 _086_
*133 _087_
*134 _088_
*135 _089_
*136 _090_
*137 _091_
*138 _092_
*139 _093_
*140 _094_
*141 _095_
*142 _096_
*143 _097_
*144 _098_
*145 _099_
*146 _100_
*147 _101_
*148 _102_
*149 _103_
*150 _104_
*151 _105_
*152 _106_
*153 _107_
*154 _108_
*155 _109_
*156 _110_
*157 _111_
*158 _112_
*159 _113_
*160 _114_
*161 _115_
*162 _116_
*163 _117_
*164 _118_
*165 _119_
*166 _120_
*167 _121_
*168 _122_
*169 _123_
*170 _124_
*171 _125_
*172 _126_
*173 _127_
*174 _128_
*175 _129_
*176 _130_
*177 _131_
*178 _132_
*179 _133_
*180 _134_
*181 _135_
*182 _136_
*183 _137_
*184 _138_
*185 _139_
*186 _140_
*187 _141_
*188 _142_
*189 _143_
*190 _144_
*191 _145_
*192 _146_
*193 _147_
*194 _148_
*195 _149_
*196 _150_
*197 _151_
*198 _152_
*199 _153_
*200 _154_
*201 _155_
*202 _156_
*203 _157_
*204 _158_
*205 _159_
*206 _160_
*207 _161_
*208 _162_
*209 _163_
*210 _164_
*211 _165_
*212 _166_
*213 _167_
*214 _168_
*215 _169_
*216 _170_
*217 _171_
*218 _172_
*219 _173_
*220 _174_
*221 _175_
*222 _176_
*223 _177_
*224 _178_
*225 _179_
*226 _180_
*227 _181_
*228 _182_
*229 _183_
*230 _184_
*231 _185_
*232 _186_
*233 _187_
*234 _188_
*235 _189_
*236 _190_
*237 _191_
*238 _192_
*239 _193_
*240 _194_
*241 _195_
*242 _196_
*243 _197_
*244 _198_
*245 _199_
*246 _200_
*247 _201_
*248 _202_
*249 _203_
*250 _204_
*251 _205_
*252 _206_
*253 _207_
*254 _208_
*255 _209_
*256 _210_
*257 _211_
*258 _212_
*259 _213_
*260 _214_
*261 _215_
*262 _216_
*263 _217_
*264 _218_
*265 _219_
*266 _220_
*267 _221_
*268 _222_
*269 _223_
*270 _224_
*271 _225_
*272 _226_
*273 _227_
*274 _228_
*275 _229_
*276 _230_
*277 _231_
*278 _232_
*279 _233_
*280 _234_
*281 _235_
*282 _236_
*283 _237_
*284 _238_
*285 _239_
*286 _240_
*287 _241_
*288 _242_
*289 _243_
*290 _244_
*291 _245_
*292 _246_
*293 _247_
*294 _248_
*295 _249_
*296 _250_
*297 _251_
*298 _252_
*299 _253_
*300 _254_
*301 _255_
*302 _256_
*303 _257_
*304 _258_
*305 _259_
*306 _260_
*307 _261_
*308 _262_
*309 _263_
*310 _264_
*311 _265_
*312 _266_
*313 _267_
*314 _268_
*315 _269_
*316 _270_
*317 _271_
*318 _272_
*319 _273_
*320 _274_
*321 _275_
*322 _276_
*323 _277_
*324 _278_
*325 _279_
*326 _280_
*327 _281_
*328 _282_
*329 _283_
*330 _284_
*331 _285_
*332 _286_
*333 _287_
*334 _288_
*335 _289_
*336 _290_
*337 _291_
*338 _292_
*339 _293_
*340 _294_
*341 _295_
*342 _296_
*343 _297_
*344 _298_
*345 _299_
*346 _300_
*347 _301_
*348 _302_
*349 _303_
*350 _304_
*351 _305_
*352 _306_
*353 _307_
*354 _308_
*355 _309_
*356 _310_
*357 _311_
*358 _312_
*359 _313_
*360 _314_
*361 _315_
*362 _316_
*363 _317_
*364 _318_
*365 _319_
*366 _320_
*367 _321_
*368 _322_
*369 _323_
*370 _324_
*371 _325_
*372 _326_
*373 _327_
*374 _328_
*375 _329_
*376 _330_
*377 _331_
*378 _332_
*379 _333_
*380 _334_
*381 _335_
*382 _336_
*383 _337_
*384 _338_
*385 _339_
*386 _340_
*387 _341_
*388 _342_
*389 _343_
*390 _344_
*391 _345_
*392 _346_
*393 _347_
*394 _348_
*395 _349_
*396 _350_
*397 _351_
*398 _352_
*399 _353_
*400 _354_
*401 _355_
*402 _356_
*403 _357_
*404 _358_
*405 _359_
*406 _360_
*407 _361_
*408 _362_
*409 _363_
*410 _364_
*411 _365_
*412 _366_
*413 _367_
*414 _368_
*415 _369_
*416 _370_
*417 _371_
*418 _372_
*419 _373_
*420 _374_
*421 _375_
*422 _376_
*423 _377_
*424 _378_
*425 _379_
*426 _380_
*427 _381_
*428 _382_
*429 lsr\[0\]
*430 lsr\[10\]
*431 lsr\[11\]
*432 lsr\[12\]
*433 lsr\[13\]
*434 lsr\[14\]
*435 lsr\[15\]
*436 lsr\[16\]
*437 lsr\[17\]
*438 lsr\[18\]
*439 lsr\[19\]
*440 lsr\[1\]
*441 lsr\[20\]
*442 lsr\[21\]
*443 lsr\[22\]
*444 lsr\[23\]
*445 lsr\[24\]
*446 lsr\[25\]
*447 lsr\[26\]
*448 lsr\[27\]
*449 lsr\[28\]
*450 lsr\[29\]
*451 lsr\[2\]
*452 lsr\[30\]
*453 lsr\[31\]
*454 lsr\[32\]
*455 lsr\[33\]
*456 lsr\[34\]
*457 lsr\[35\]
*458 lsr\[36\]
*459 lsr\[37\]
*460 lsr\[38\]
*461 lsr\[39\]
*462 lsr\[3\]
*463 lsr\[40\]
*464 lsr\[41\]
*465 lsr\[42\]
*466 lsr\[43\]
*467 lsr\[44\]
*468 lsr\[45\]
*469 lsr\[46\]
*470 lsr\[47\]
*471 lsr\[48\]
*472 lsr\[49\]
*473 lsr\[4\]
*474 lsr\[50\]
*475 lsr\[51\]
*476 lsr\[52\]
*477 lsr\[53\]
*478 lsr\[54\]
*479 lsr\[55\]
*480 lsr\[56\]
*481 lsr\[57\]
*482 lsr\[58\]
*483 lsr\[59\]
*484 lsr\[5\]
*485 lsr\[60\]
*486 lsr\[61\]
*487 lsr\[62\]
*488 lsr\[63\]
*489 lsr\[6\]
*490 lsr\[7\]
*491 lsr\[8\]
*492 lsr\[9\]
*493 net1
*494 net10
*495 net11
*496 net12
*497 net13
*498 net14
*499 net15
*500 net16
*501 net17
*502 net18
*503 net19
*504 net2
*505 net20
*506 net21
*507 net22
*508 net23
*509 net24
*510 net25
*511 net26
*512 net27
*513 net28
*514 net3
*515 net4
*516 net5
*517 net6
*518 net7
*519 net8
*520 net9
*521 FILLER_0_0_109
*522 FILLER_0_0_113
*523 FILLER_0_0_125
*524 FILLER_0_0_137
*525 FILLER_0_0_141
*526 FILLER_0_0_15
*527 FILLER_0_0_153
*528 FILLER_0_0_165
*529 FILLER_0_0_169
*530 FILLER_0_0_181
*531 FILLER_0_0_193
*532 FILLER_0_0_197
*533 FILLER_0_0_209
*534 FILLER_0_0_221
*535 FILLER_0_0_225
*536 FILLER_0_0_237
*537 FILLER_0_0_249
*538 FILLER_0_0_253
*539 FILLER_0_0_265
*540 FILLER_0_0_27
*541 FILLER_0_0_277
*542 FILLER_0_0_281
*543 FILLER_0_0_29
*544 FILLER_0_0_293
*545 FILLER_0_0_3
*546 FILLER_0_0_305
*547 FILLER_0_0_309
*548 FILLER_0_0_321
*549 FILLER_0_0_333
*550 FILLER_0_0_337
*551 FILLER_0_0_349
*552 FILLER_0_0_41
*553 FILLER_0_0_53
*554 FILLER_0_0_57
*555 FILLER_0_0_69
*556 FILLER_0_0_81
*557 FILLER_0_0_85
*558 FILLER_0_0_97
*559 FILLER_0_10_109
*560 FILLER_0_10_121
*561 FILLER_0_10_133
*562 FILLER_0_10_139
*563 FILLER_0_10_141
*564 FILLER_0_10_15
*565 FILLER_0_10_153
*566 FILLER_0_10_165
*567 FILLER_0_10_177
*568 FILLER_0_10_189
*569 FILLER_0_10_195
*570 FILLER_0_10_197
*571 FILLER_0_10_209
*572 FILLER_0_10_221
*573 FILLER_0_10_233
*574 FILLER_0_10_245
*575 FILLER_0_10_251
*576 FILLER_0_10_253
*577 FILLER_0_10_265
*578 FILLER_0_10_27
*579 FILLER_0_10_277
*580 FILLER_0_10_289
*581 FILLER_0_10_29
*582 FILLER_0_10_3
*583 FILLER_0_10_301
*584 FILLER_0_10_307
*585 FILLER_0_10_309
*586 FILLER_0_10_321
*587 FILLER_0_10_333
*588 FILLER_0_10_345
*589 FILLER_0_10_41
*590 FILLER_0_10_53
*591 FILLER_0_10_65
*592 FILLER_0_10_77
*593 FILLER_0_10_83
*594 FILLER_0_10_85
*595 FILLER_0_10_97
*596 FILLER_0_11_105
*597 FILLER_0_11_111
*598 FILLER_0_11_113
*599 FILLER_0_11_125
*600 FILLER_0_11_137
*601 FILLER_0_11_149
*602 FILLER_0_11_15
*603 FILLER_0_11_161
*604 FILLER_0_11_167
*605 FILLER_0_11_169
*606 FILLER_0_11_181
*607 FILLER_0_11_193
*608 FILLER_0_11_205
*609 FILLER_0_11_217
*610 FILLER_0_11_223
*611 FILLER_0_11_225
*612 FILLER_0_11_237
*613 FILLER_0_11_249
*614 FILLER_0_11_261
*615 FILLER_0_11_27
*616 FILLER_0_11_273
*617 FILLER_0_11_279
*618 FILLER_0_11_281
*619 FILLER_0_11_293
*620 FILLER_0_11_3
*621 FILLER_0_11_305
*622 FILLER_0_11_317
*623 FILLER_0_11_329
*624 FILLER_0_11_335
*625 FILLER_0_11_337
*626 FILLER_0_11_349
*627 FILLER_0_11_39
*628 FILLER_0_11_51
*629 FILLER_0_11_55
*630 FILLER_0_11_57
*631 FILLER_0_11_69
*632 FILLER_0_11_81
*633 FILLER_0_11_93
*634 FILLER_0_12_109
*635 FILLER_0_12_121
*636 FILLER_0_12_133
*637 FILLER_0_12_139
*638 FILLER_0_12_141
*639 FILLER_0_12_15
*640 FILLER_0_12_153
*641 FILLER_0_12_165
*642 FILLER_0_12_177
*643 FILLER_0_12_189
*644 FILLER_0_12_195
*645 FILLER_0_12_197
*646 FILLER_0_12_209
*647 FILLER_0_12_221
*648 FILLER_0_12_233
*649 FILLER_0_12_245
*650 FILLER_0_12_251
*651 FILLER_0_12_253
*652 FILLER_0_12_265
*653 FILLER_0_12_27
*654 FILLER_0_12_277
*655 FILLER_0_12_289
*656 FILLER_0_12_29
*657 FILLER_0_12_3
*658 FILLER_0_12_301
*659 FILLER_0_12_307
*660 FILLER_0_12_309
*661 FILLER_0_12_321
*662 FILLER_0_12_333
*663 FILLER_0_12_345
*664 FILLER_0_12_41
*665 FILLER_0_12_53
*666 FILLER_0_12_65
*667 FILLER_0_12_77
*668 FILLER_0_12_83
*669 FILLER_0_12_85
*670 FILLER_0_12_97
*671 FILLER_0_13_105
*672 FILLER_0_13_111
*673 FILLER_0_13_113
*674 FILLER_0_13_125
*675 FILLER_0_13_137
*676 FILLER_0_13_149
*677 FILLER_0_13_15
*678 FILLER_0_13_161
*679 FILLER_0_13_167
*680 FILLER_0_13_169
*681 FILLER_0_13_181
*682 FILLER_0_13_193
*683 FILLER_0_13_205
*684 FILLER_0_13_217
*685 FILLER_0_13_223
*686 FILLER_0_13_225
*687 FILLER_0_13_237
*688 FILLER_0_13_249
*689 FILLER_0_13_261
*690 FILLER_0_13_27
*691 FILLER_0_13_273
*692 FILLER_0_13_279
*693 FILLER_0_13_281
*694 FILLER_0_13_293
*695 FILLER_0_13_3
*696 FILLER_0_13_305
*697 FILLER_0_13_317
*698 FILLER_0_13_329
*699 FILLER_0_13_335
*700 FILLER_0_13_337
*701 FILLER_0_13_349
*702 FILLER_0_13_39
*703 FILLER_0_13_51
*704 FILLER_0_13_55
*705 FILLER_0_13_57
*706 FILLER_0_13_69
*707 FILLER_0_13_81
*708 FILLER_0_13_93
*709 FILLER_0_14_109
*710 FILLER_0_14_121
*711 FILLER_0_14_133
*712 FILLER_0_14_139
*713 FILLER_0_14_141
*714 FILLER_0_14_15
*715 FILLER_0_14_153
*716 FILLER_0_14_165
*717 FILLER_0_14_177
*718 FILLER_0_14_189
*719 FILLER_0_14_195
*720 FILLER_0_14_197
*721 FILLER_0_14_209
*722 FILLER_0_14_221
*723 FILLER_0_14_233
*724 FILLER_0_14_245
*725 FILLER_0_14_251
*726 FILLER_0_14_253
*727 FILLER_0_14_265
*728 FILLER_0_14_27
*729 FILLER_0_14_277
*730 FILLER_0_14_289
*731 FILLER_0_14_29
*732 FILLER_0_14_3
*733 FILLER_0_14_301
*734 FILLER_0_14_307
*735 FILLER_0_14_309
*736 FILLER_0_14_321
*737 FILLER_0_14_333
*738 FILLER_0_14_345
*739 FILLER_0_14_41
*740 FILLER_0_14_53
*741 FILLER_0_14_65
*742 FILLER_0_14_77
*743 FILLER_0_14_83
*744 FILLER_0_14_85
*745 FILLER_0_14_97
*746 FILLER_0_15_105
*747 FILLER_0_15_111
*748 FILLER_0_15_113
*749 FILLER_0_15_125
*750 FILLER_0_15_137
*751 FILLER_0_15_149
*752 FILLER_0_15_15
*753 FILLER_0_15_161
*754 FILLER_0_15_167
*755 FILLER_0_15_169
*756 FILLER_0_15_181
*757 FILLER_0_15_193
*758 FILLER_0_15_205
*759 FILLER_0_15_217
*760 FILLER_0_15_223
*761 FILLER_0_15_225
*762 FILLER_0_15_237
*763 FILLER_0_15_249
*764 FILLER_0_15_261
*765 FILLER_0_15_27
*766 FILLER_0_15_273
*767 FILLER_0_15_279
*768 FILLER_0_15_281
*769 FILLER_0_15_293
*770 FILLER_0_15_3
*771 FILLER_0_15_305
*772 FILLER_0_15_317
*773 FILLER_0_15_329
*774 FILLER_0_15_335
*775 FILLER_0_15_337
*776 FILLER_0_15_349
*777 FILLER_0_15_39
*778 FILLER_0_15_51
*779 FILLER_0_15_55
*780 FILLER_0_15_57
*781 FILLER_0_15_69
*782 FILLER_0_15_81
*783 FILLER_0_15_93
*784 FILLER_0_16_109
*785 FILLER_0_16_117
*786 FILLER_0_16_141
*787 FILLER_0_16_15
*788 FILLER_0_16_153
*789 FILLER_0_16_161
*790 FILLER_0_16_183
*791 FILLER_0_16_195
*792 FILLER_0_16_197
*793 FILLER_0_16_205
*794 FILLER_0_16_226
*795 FILLER_0_16_238
*796 FILLER_0_16_250
*797 FILLER_0_16_27
*798 FILLER_0_16_273
*799 FILLER_0_16_285
*800 FILLER_0_16_29
*801 FILLER_0_16_297
*802 FILLER_0_16_3
*803 FILLER_0_16_305
*804 FILLER_0_16_309
*805 FILLER_0_16_321
*806 FILLER_0_16_333
*807 FILLER_0_16_345
*808 FILLER_0_16_41
*809 FILLER_0_16_53
*810 FILLER_0_16_65
*811 FILLER_0_16_77
*812 FILLER_0_16_83
*813 FILLER_0_16_85
*814 FILLER_0_16_97
*815 FILLER_0_17_113
*816 FILLER_0_17_125
*817 FILLER_0_17_15
*818 FILLER_0_17_151
*819 FILLER_0_17_163
*820 FILLER_0_17_189
*821 FILLER_0_17_201
*822 FILLER_0_17_225
*823 FILLER_0_17_237
*824 FILLER_0_17_27
*825 FILLER_0_17_272
*826 FILLER_0_17_281
*827 FILLER_0_17_293
*828 FILLER_0_17_3
*829 FILLER_0_17_305
*830 FILLER_0_17_326
*831 FILLER_0_17_334
*832 FILLER_0_17_337
*833 FILLER_0_17_349
*834 FILLER_0_17_39
*835 FILLER_0_17_51
*836 FILLER_0_17_55
*837 FILLER_0_17_57
*838 FILLER_0_17_69
*839 FILLER_0_17_81
*840 FILLER_0_17_89
*841 FILLER_0_18_124
*842 FILLER_0_18_131
*843 FILLER_0_18_141
*844 FILLER_0_18_15
*845 FILLER_0_18_151
*846 FILLER_0_18_159
*847 FILLER_0_18_181
*848 FILLER_0_18_193
*849 FILLER_0_18_197
*850 FILLER_0_18_205
*851 FILLER_0_18_221
*852 FILLER_0_18_233
*853 FILLER_0_18_245
*854 FILLER_0_18_251
*855 FILLER_0_18_27
*856 FILLER_0_18_282
*857 FILLER_0_18_29
*858 FILLER_0_18_294
*859 FILLER_0_18_3
*860 FILLER_0_18_329
*861 FILLER_0_18_341
*862 FILLER_0_18_349
*863 FILLER_0_18_41
*864 FILLER_0_18_53
*865 FILLER_0_18_65
*866 FILLER_0_18_77
*867 FILLER_0_18_83
*868 FILLER_0_18_85
*869 FILLER_0_19_110
*870 FILLER_0_19_113
*871 FILLER_0_19_125
*872 FILLER_0_19_131
*873 FILLER_0_19_141
*874 FILLER_0_19_149
*875 FILLER_0_19_15
*876 FILLER_0_19_161
*877 FILLER_0_19_167
*878 FILLER_0_19_169
*879 FILLER_0_19_191
*880 FILLER_0_19_203
*881 FILLER_0_19_220
*882 FILLER_0_19_225
*883 FILLER_0_19_237
*884 FILLER_0_19_249
*885 FILLER_0_19_27
*886 FILLER_0_19_279
*887 FILLER_0_19_281
*888 FILLER_0_19_297
*889 FILLER_0_19_3
*890 FILLER_0_19_305
*891 FILLER_0_19_337
*892 FILLER_0_19_349
*893 FILLER_0_19_39
*894 FILLER_0_19_51
*895 FILLER_0_19_55
*896 FILLER_0_19_57
*897 FILLER_0_19_65
*898 FILLER_0_19_88
*899 FILLER_0_19_96
*900 FILLER_0_1_105
*901 FILLER_0_1_111
*902 FILLER_0_1_113
*903 FILLER_0_1_125
*904 FILLER_0_1_137
*905 FILLER_0_1_149
*906 FILLER_0_1_15
*907 FILLER_0_1_161
*908 FILLER_0_1_167
*909 FILLER_0_1_169
*910 FILLER_0_1_181
*911 FILLER_0_1_193
*912 FILLER_0_1_205
*913 FILLER_0_1_217
*914 FILLER_0_1_223
*915 FILLER_0_1_225
*916 FILLER_0_1_237
*917 FILLER_0_1_249
*918 FILLER_0_1_261
*919 FILLER_0_1_27
*920 FILLER_0_1_273
*921 FILLER_0_1_279
*922 FILLER_0_1_281
*923 FILLER_0_1_293
*924 FILLER_0_1_3
*925 FILLER_0_1_305
*926 FILLER_0_1_317
*927 FILLER_0_1_329
*928 FILLER_0_1_335
*929 FILLER_0_1_337
*930 FILLER_0_1_349
*931 FILLER_0_1_39
*932 FILLER_0_1_51
*933 FILLER_0_1_55
*934 FILLER_0_1_57
*935 FILLER_0_1_69
*936 FILLER_0_1_81
*937 FILLER_0_1_93
*938 FILLER_0_20_118
*939 FILLER_0_20_130
*940 FILLER_0_20_138
*941 FILLER_0_20_141
*942 FILLER_0_20_15
*943 FILLER_0_20_150
*944 FILLER_0_20_157
*945 FILLER_0_20_193
*946 FILLER_0_20_197
*947 FILLER_0_20_209
*948 FILLER_0_20_227
*949 FILLER_0_20_239
*950 FILLER_0_20_251
*951 FILLER_0_20_27
*952 FILLER_0_20_272
*953 FILLER_0_20_280
*954 FILLER_0_20_288
*955 FILLER_0_20_29
*956 FILLER_0_20_297
*957 FILLER_0_20_3
*958 FILLER_0_20_305
*959 FILLER_0_20_309
*960 FILLER_0_20_344
*961 FILLER_0_20_350
*962 FILLER_0_20_41
*963 FILLER_0_20_73
*964 FILLER_0_20_77
*965 FILLER_0_20_83
*966 FILLER_0_20_94
*967 FILLER_0_21_124
*968 FILLER_0_21_136
*969 FILLER_0_21_15
*970 FILLER_0_21_152
*971 FILLER_0_21_166
*972 FILLER_0_21_172
*973 FILLER_0_21_189
*974 FILLER_0_21_201
*975 FILLER_0_21_232
*976 FILLER_0_21_244
*977 FILLER_0_21_27
*978 FILLER_0_21_271
*979 FILLER_0_21_279
*980 FILLER_0_21_3
*981 FILLER_0_21_300
*982 FILLER_0_21_312
*983 FILLER_0_21_332
*984 FILLER_0_21_337
*985 FILLER_0_21_349
*986 FILLER_0_21_39
*987 FILLER_0_21_51
*988 FILLER_0_21_55
*989 FILLER_0_21_57
*990 FILLER_0_21_90
*991 FILLER_0_21_96
*992 FILLER_0_22_124
*993 FILLER_0_22_136
*994 FILLER_0_22_15
*995 FILLER_0_22_156
*996 FILLER_0_22_164
*997 FILLER_0_22_183
*998 FILLER_0_22_195
*999 FILLER_0_22_197
*1000 FILLER_0_22_227
*1001 FILLER_0_22_241
*1002 FILLER_0_22_27
*1003 FILLER_0_22_284
*1004 FILLER_0_22_29
*1005 FILLER_0_22_296
*1006 FILLER_0_22_3
*1007 FILLER_0_22_309
*1008 FILLER_0_22_315
*1009 FILLER_0_22_343
*1010 FILLER_0_22_41
*1011 FILLER_0_22_45
*1012 FILLER_0_22_81
*1013 FILLER_0_22_85
*1014 FILLER_0_22_93
*1015 FILLER_0_23_110
*1016 FILLER_0_23_121
*1017 FILLER_0_23_133
*1018 FILLER_0_23_141
*1019 FILLER_0_23_15
*1020 FILLER_0_23_157
*1021 FILLER_0_23_161
*1022 FILLER_0_23_184
*1023 FILLER_0_23_196
*1024 FILLER_0_23_225
*1025 FILLER_0_23_237
*1026 FILLER_0_23_243
*1027 FILLER_0_23_266
*1028 FILLER_0_23_27
*1029 FILLER_0_23_277
*1030 FILLER_0_23_296
*1031 FILLER_0_23_3
*1032 FILLER_0_23_308
*1033 FILLER_0_23_312
*1034 FILLER_0_23_346
*1035 FILLER_0_23_350
*1036 FILLER_0_23_39
*1037 FILLER_0_23_47
*1038 FILLER_0_23_78
*1039 FILLER_0_23_90
*1040 FILLER_0_24_115
*1041 FILLER_0_24_123
*1042 FILLER_0_24_141
*1043 FILLER_0_24_15
*1044 FILLER_0_24_170
*1045 FILLER_0_24_188
*1046 FILLER_0_24_197
*1047 FILLER_0_24_205
*1048 FILLER_0_24_233
*1049 FILLER_0_24_241
*1050 FILLER_0_24_269
*1051 FILLER_0_24_27
*1052 FILLER_0_24_29
*1053 FILLER_0_24_296
*1054 FILLER_0_24_3
*1055 FILLER_0_24_309
*1056 FILLER_0_24_41
*1057 FILLER_0_24_67
*1058 FILLER_0_24_73
*1059 FILLER_0_24_83
*1060 FILLER_0_24_85
*1061 FILLER_0_24_89
*1062 FILLER_0_24_97
*1063 FILLER_0_25_111
*1064 FILLER_0_25_113
*1065 FILLER_0_25_125
*1066 FILLER_0_25_137
*1067 FILLER_0_25_15
*1068 FILLER_0_25_157
*1069 FILLER_0_25_167
*1070 FILLER_0_25_190
*1071 FILLER_0_25_223
*1072 FILLER_0_25_225
*1073 FILLER_0_25_239
*1074 FILLER_0_25_247
*1075 FILLER_0_25_262
*1076 FILLER_0_25_266
*1077 FILLER_0_25_27
*1078 FILLER_0_25_277
*1079 FILLER_0_25_281
*1080 FILLER_0_25_290
*1081 FILLER_0_25_3
*1082 FILLER_0_25_302
*1083 FILLER_0_25_331
*1084 FILLER_0_25_335
*1085 FILLER_0_25_337
*1086 FILLER_0_25_349
*1087 FILLER_0_25_39
*1088 FILLER_0_25_47
*1089 FILLER_0_25_53
*1090 FILLER_0_25_78
*1091 FILLER_0_25_90
*1092 FILLER_0_25_94
*1093 FILLER_0_26_122
*1094 FILLER_0_26_134
*1095 FILLER_0_26_141
*1096 FILLER_0_26_15
*1097 FILLER_0_26_153
*1098 FILLER_0_26_173
*1099 FILLER_0_26_185
*1100 FILLER_0_26_193
*1101 FILLER_0_26_197
*1102 FILLER_0_26_205
*1103 FILLER_0_26_209
*1104 FILLER_0_26_227
*1105 FILLER_0_26_239
*1106 FILLER_0_26_251
*1107 FILLER_0_26_264
*1108 FILLER_0_26_27
*1109 FILLER_0_26_278
*1110 FILLER_0_26_29
*1111 FILLER_0_26_290
*1112 FILLER_0_26_3
*1113 FILLER_0_26_302
*1114 FILLER_0_26_309
*1115 FILLER_0_26_336
*1116 FILLER_0_26_348
*1117 FILLER_0_26_41
*1118 FILLER_0_26_80
*1119 FILLER_0_26_85
*1120 FILLER_0_27_109
*1121 FILLER_0_27_113
*1122 FILLER_0_27_125
*1123 FILLER_0_27_143
*1124 FILLER_0_27_147
*1125 FILLER_0_27_15
*1126 FILLER_0_27_164
*1127 FILLER_0_27_169
*1128 FILLER_0_27_173
*1129 FILLER_0_27_189
*1130 FILLER_0_27_201
*1131 FILLER_0_27_207
*1132 FILLER_0_27_222
*1133 FILLER_0_27_238
*1134 FILLER_0_27_246
*1135 FILLER_0_27_266
*1136 FILLER_0_27_27
*1137 FILLER_0_27_279
*1138 FILLER_0_27_281
*1139 FILLER_0_27_293
*1140 FILLER_0_27_3
*1141 FILLER_0_27_305
*1142 FILLER_0_27_327
*1143 FILLER_0_27_335
*1144 FILLER_0_27_346
*1145 FILLER_0_27_350
*1146 FILLER_0_27_39
*1147 FILLER_0_27_51
*1148 FILLER_0_27_55
*1149 FILLER_0_27_78
*1150 FILLER_0_27_90
*1151 FILLER_0_28_108
*1152 FILLER_0_28_120
*1153 FILLER_0_28_132
*1154 FILLER_0_28_149
*1155 FILLER_0_28_15
*1156 FILLER_0_28_153
*1157 FILLER_0_28_163
*1158 FILLER_0_28_167
*1159 FILLER_0_28_188
*1160 FILLER_0_28_197
*1161 FILLER_0_28_230
*1162 FILLER_0_28_243
*1163 FILLER_0_28_269
*1164 FILLER_0_28_27
*1165 FILLER_0_28_286
*1166 FILLER_0_28_29
*1167 FILLER_0_28_298
*1168 FILLER_0_28_3
*1169 FILLER_0_28_306
*1170 FILLER_0_28_318
*1171 FILLER_0_28_345
*1172 FILLER_0_28_41
*1173 FILLER_0_28_47
*1174 FILLER_0_28_53
*1175 FILLER_0_28_66
*1176 FILLER_0_28_78
*1177 FILLER_0_28_85
*1178 FILLER_0_28_97
*1179 FILLER_0_29_108
*1180 FILLER_0_29_120
*1181 FILLER_0_29_141
*1182 FILLER_0_29_15
*1183 FILLER_0_29_160
*1184 FILLER_0_29_164
*1185 FILLER_0_29_190
*1186 FILLER_0_29_202
*1187 FILLER_0_29_223
*1188 FILLER_0_29_225
*1189 FILLER_0_29_236
*1190 FILLER_0_29_248
*1191 FILLER_0_29_266
*1192 FILLER_0_29_27
*1193 FILLER_0_29_274
*1194 FILLER_0_29_279
*1195 FILLER_0_29_288
*1196 FILLER_0_29_294
*1197 FILLER_0_29_3
*1198 FILLER_0_29_319
*1199 FILLER_0_29_323
*1200 FILLER_0_29_337
*1201 FILLER_0_29_349
*1202 FILLER_0_29_78
*1203 FILLER_0_29_86
*1204 FILLER_0_2_109
*1205 FILLER_0_2_121
*1206 FILLER_0_2_133
*1207 FILLER_0_2_139
*1208 FILLER_0_2_141
*1209 FILLER_0_2_15
*1210 FILLER_0_2_153
*1211 FILLER_0_2_165
*1212 FILLER_0_2_177
*1213 FILLER_0_2_189
*1214 FILLER_0_2_195
*1215 FILLER_0_2_197
*1216 FILLER_0_2_209
*1217 FILLER_0_2_221
*1218 FILLER_0_2_233
*1219 FILLER_0_2_245
*1220 FILLER_0_2_251
*1221 FILLER_0_2_253
*1222 FILLER_0_2_265
*1223 FILLER_0_2_27
*1224 FILLER_0_2_277
*1225 FILLER_0_2_289
*1226 FILLER_0_2_29
*1227 FILLER_0_2_3
*1228 FILLER_0_2_301
*1229 FILLER_0_2_307
*1230 FILLER_0_2_309
*1231 FILLER_0_2_321
*1232 FILLER_0_2_333
*1233 FILLER_0_2_345
*1234 FILLER_0_2_41
*1235 FILLER_0_2_53
*1236 FILLER_0_2_65
*1237 FILLER_0_2_77
*1238 FILLER_0_2_83
*1239 FILLER_0_2_85
*1240 FILLER_0_2_97
*1241 FILLER_0_30_112
*1242 FILLER_0_30_118
*1243 FILLER_0_30_124
*1244 FILLER_0_30_133
*1245 FILLER_0_30_139
*1246 FILLER_0_30_141
*1247 FILLER_0_30_149
*1248 FILLER_0_30_15
*1249 FILLER_0_30_165
*1250 FILLER_0_30_185
*1251 FILLER_0_30_193
*1252 FILLER_0_30_197
*1253 FILLER_0_30_216
*1254 FILLER_0_30_228
*1255 FILLER_0_30_234
*1256 FILLER_0_30_241
*1257 FILLER_0_30_260
*1258 FILLER_0_30_27
*1259 FILLER_0_30_282
*1260 FILLER_0_30_29
*1261 FILLER_0_30_294
*1262 FILLER_0_30_3
*1263 FILLER_0_30_304
*1264 FILLER_0_30_309
*1265 FILLER_0_30_321
*1266 FILLER_0_30_345
*1267 FILLER_0_30_41
*1268 FILLER_0_30_73
*1269 FILLER_0_30_81
*1270 FILLER_0_30_92
*1271 FILLER_0_31_106
*1272 FILLER_0_31_113
*1273 FILLER_0_31_126
*1274 FILLER_0_31_148
*1275 FILLER_0_31_15
*1276 FILLER_0_31_167
*1277 FILLER_0_31_169
*1278 FILLER_0_31_180
*1279 FILLER_0_31_192
*1280 FILLER_0_31_221
*1281 FILLER_0_31_225
*1282 FILLER_0_31_238
*1283 FILLER_0_31_246
*1284 FILLER_0_31_255
*1285 FILLER_0_31_266
*1286 FILLER_0_31_27
*1287 FILLER_0_31_278
*1288 FILLER_0_31_281
*1289 FILLER_0_31_287
*1290 FILLER_0_31_3
*1291 FILLER_0_31_312
*1292 FILLER_0_31_320
*1293 FILLER_0_31_334
*1294 FILLER_0_31_337
*1295 FILLER_0_31_349
*1296 FILLER_0_31_90
*1297 FILLER_0_31_98
*1298 FILLER_0_32_100
*1299 FILLER_0_32_108
*1300 FILLER_0_32_114
*1301 FILLER_0_32_130
*1302 FILLER_0_32_138
*1303 FILLER_0_32_141
*1304 FILLER_0_32_145
*1305 FILLER_0_32_15
*1306 FILLER_0_32_153
*1307 FILLER_0_32_191
*1308 FILLER_0_32_195
*1309 FILLER_0_32_197
*1310 FILLER_0_32_201
*1311 FILLER_0_32_228
*1312 FILLER_0_32_240
*1313 FILLER_0_32_250
*1314 FILLER_0_32_27
*1315 FILLER_0_32_280
*1316 FILLER_0_32_29
*1317 FILLER_0_32_292
*1318 FILLER_0_32_3
*1319 FILLER_0_32_303
*1320 FILLER_0_32_307
*1321 FILLER_0_32_309
*1322 FILLER_0_32_315
*1323 FILLER_0_32_349
*1324 FILLER_0_32_41
*1325 FILLER_0_32_69
*1326 FILLER_0_32_76
*1327 FILLER_0_32_94
*1328 FILLER_0_33_101
*1329 FILLER_0_33_110
*1330 FILLER_0_33_113
*1331 FILLER_0_33_121
*1332 FILLER_0_33_129
*1333 FILLER_0_33_149
*1334 FILLER_0_33_15
*1335 FILLER_0_33_161
*1336 FILLER_0_33_167
*1337 FILLER_0_33_177
*1338 FILLER_0_33_193
*1339 FILLER_0_33_205
*1340 FILLER_0_33_221
*1341 FILLER_0_33_225
*1342 FILLER_0_33_237
*1343 FILLER_0_33_243
*1344 FILLER_0_33_27
*1345 FILLER_0_33_279
*1346 FILLER_0_33_286
*1347 FILLER_0_33_290
*1348 FILLER_0_33_3
*1349 FILLER_0_33_312
*1350 FILLER_0_33_320
*1351 FILLER_0_33_334
*1352 FILLER_0_33_337
*1353 FILLER_0_33_349
*1354 FILLER_0_33_66
*1355 FILLER_0_33_78
*1356 FILLER_0_33_90
*1357 FILLER_0_34_105
*1358 FILLER_0_34_117
*1359 FILLER_0_34_129
*1360 FILLER_0_34_138
*1361 FILLER_0_34_144
*1362 FILLER_0_34_15
*1363 FILLER_0_34_156
*1364 FILLER_0_34_185
*1365 FILLER_0_34_193
*1366 FILLER_0_34_197
*1367 FILLER_0_34_209
*1368 FILLER_0_34_218
*1369 FILLER_0_34_230
*1370 FILLER_0_34_242
*1371 FILLER_0_34_27
*1372 FILLER_0_34_279
*1373 FILLER_0_34_29
*1374 FILLER_0_34_291
*1375 FILLER_0_34_297
*1376 FILLER_0_34_3
*1377 FILLER_0_34_305
*1378 FILLER_0_34_309
*1379 FILLER_0_34_344
*1380 FILLER_0_34_350
*1381 FILLER_0_34_41
*1382 FILLER_0_34_63
*1383 FILLER_0_34_75
*1384 FILLER_0_34_83
*1385 FILLER_0_34_92
*1386 FILLER_0_35_100
*1387 FILLER_0_35_113
*1388 FILLER_0_35_15
*1389 FILLER_0_35_152
*1390 FILLER_0_35_160
*1391 FILLER_0_35_185
*1392 FILLER_0_35_197
*1393 FILLER_0_35_221
*1394 FILLER_0_35_225
*1395 FILLER_0_35_237
*1396 FILLER_0_35_259
*1397 FILLER_0_35_27
*1398 FILLER_0_35_276
*1399 FILLER_0_35_281
*1400 FILLER_0_35_293
*1401 FILLER_0_35_3
*1402 FILLER_0_35_305
*1403 FILLER_0_35_337
*1404 FILLER_0_35_349
*1405 FILLER_0_35_39
*1406 FILLER_0_35_47
*1407 FILLER_0_35_53
*1408 FILLER_0_35_57
*1409 FILLER_0_35_76
*1410 FILLER_0_35_88
*1411 FILLER_0_36_110
*1412 FILLER_0_36_120
*1413 FILLER_0_36_135
*1414 FILLER_0_36_139
*1415 FILLER_0_36_148
*1416 FILLER_0_36_15
*1417 FILLER_0_36_156
*1418 FILLER_0_36_192
*1419 FILLER_0_36_197
*1420 FILLER_0_36_229
*1421 FILLER_0_36_238
*1422 FILLER_0_36_269
*1423 FILLER_0_36_27
*1424 FILLER_0_36_281
*1425 FILLER_0_36_286
*1426 FILLER_0_36_29
*1427 FILLER_0_36_3
*1428 FILLER_0_36_309
*1429 FILLER_0_36_344
*1430 FILLER_0_36_350
*1431 FILLER_0_36_41
*1432 FILLER_0_36_73
*1433 FILLER_0_36_89
*1434 FILLER_0_37_108
*1435 FILLER_0_37_113
*1436 FILLER_0_37_121
*1437 FILLER_0_37_138
*1438 FILLER_0_37_15
*1439 FILLER_0_37_150
*1440 FILLER_0_37_194
*1441 FILLER_0_37_225
*1442 FILLER_0_37_231
*1443 FILLER_0_37_266
*1444 FILLER_0_37_27
*1445 FILLER_0_37_281
*1446 FILLER_0_37_3
*1447 FILLER_0_37_343
*1448 FILLER_0_37_39
*1449 FILLER_0_37_47
*1450 FILLER_0_37_78
*1451 FILLER_0_38_104
*1452 FILLER_0_38_110
*1453 FILLER_0_38_116
*1454 FILLER_0_38_122
*1455 FILLER_0_38_128
*1456 FILLER_0_38_134
*1457 FILLER_0_38_141
*1458 FILLER_0_38_146
*1459 FILLER_0_38_15
*1460 FILLER_0_38_152
*1461 FILLER_0_38_158
*1462 FILLER_0_38_169
*1463 FILLER_0_38_177
*1464 FILLER_0_38_185
*1465 FILLER_0_38_193
*1466 FILLER_0_38_197
*1467 FILLER_0_38_216
*1468 FILLER_0_38_225
*1469 FILLER_0_38_233
*1470 FILLER_0_38_251
*1471 FILLER_0_38_27
*1472 FILLER_0_38_274
*1473 FILLER_0_38_278
*1474 FILLER_0_38_29
*1475 FILLER_0_38_297
*1476 FILLER_0_38_3
*1477 FILLER_0_38_309
*1478 FILLER_0_38_341
*1479 FILLER_0_38_349
*1480 FILLER_0_38_41
*1481 FILLER_0_38_53
*1482 FILLER_0_38_57
*1483 FILLER_0_38_68
*1484 FILLER_0_38_74
*1485 FILLER_0_38_80
*1486 FILLER_0_38_88
*1487 FILLER_0_38_92
*1488 FILLER_0_38_98
*1489 FILLER_0_3_105
*1490 FILLER_0_3_111
*1491 FILLER_0_3_113
*1492 FILLER_0_3_125
*1493 FILLER_0_3_137
*1494 FILLER_0_3_149
*1495 FILLER_0_3_15
*1496 FILLER_0_3_161
*1497 FILLER_0_3_167
*1498 FILLER_0_3_169
*1499 FILLER_0_3_181
*1500 FILLER_0_3_193
*1501 FILLER_0_3_205
*1502 FILLER_0_3_217
*1503 FILLER_0_3_223
*1504 FILLER_0_3_225
*1505 FILLER_0_3_237
*1506 FILLER_0_3_249
*1507 FILLER_0_3_261
*1508 FILLER_0_3_27
*1509 FILLER_0_3_273
*1510 FILLER_0_3_279
*1511 FILLER_0_3_281
*1512 FILLER_0_3_293
*1513 FILLER_0_3_3
*1514 FILLER_0_3_305
*1515 FILLER_0_3_317
*1516 FILLER_0_3_329
*1517 FILLER_0_3_335
*1518 FILLER_0_3_337
*1519 FILLER_0_3_349
*1520 FILLER_0_3_39
*1521 FILLER_0_3_51
*1522 FILLER_0_3_55
*1523 FILLER_0_3_57
*1524 FILLER_0_3_69
*1525 FILLER_0_3_81
*1526 FILLER_0_3_93
*1527 FILLER_0_4_109
*1528 FILLER_0_4_121
*1529 FILLER_0_4_133
*1530 FILLER_0_4_139
*1531 FILLER_0_4_141
*1532 FILLER_0_4_15
*1533 FILLER_0_4_153
*1534 FILLER_0_4_165
*1535 FILLER_0_4_177
*1536 FILLER_0_4_189
*1537 FILLER_0_4_195
*1538 FILLER_0_4_197
*1539 FILLER_0_4_209
*1540 FILLER_0_4_221
*1541 FILLER_0_4_233
*1542 FILLER_0_4_245
*1543 FILLER_0_4_251
*1544 FILLER_0_4_253
*1545 FILLER_0_4_265
*1546 FILLER_0_4_27
*1547 FILLER_0_4_277
*1548 FILLER_0_4_289
*1549 FILLER_0_4_29
*1550 FILLER_0_4_3
*1551 FILLER_0_4_301
*1552 FILLER_0_4_307
*1553 FILLER_0_4_309
*1554 FILLER_0_4_321
*1555 FILLER_0_4_333
*1556 FILLER_0_4_345
*1557 FILLER_0_4_41
*1558 FILLER_0_4_53
*1559 FILLER_0_4_65
*1560 FILLER_0_4_77
*1561 FILLER_0_4_83
*1562 FILLER_0_4_85
*1563 FILLER_0_4_97
*1564 FILLER_0_5_105
*1565 FILLER_0_5_111
*1566 FILLER_0_5_113
*1567 FILLER_0_5_125
*1568 FILLER_0_5_137
*1569 FILLER_0_5_149
*1570 FILLER_0_5_15
*1571 FILLER_0_5_161
*1572 FILLER_0_5_167
*1573 FILLER_0_5_169
*1574 FILLER_0_5_181
*1575 FILLER_0_5_193
*1576 FILLER_0_5_205
*1577 FILLER_0_5_217
*1578 FILLER_0_5_223
*1579 FILLER_0_5_225
*1580 FILLER_0_5_237
*1581 FILLER_0_5_249
*1582 FILLER_0_5_261
*1583 FILLER_0_5_27
*1584 FILLER_0_5_273
*1585 FILLER_0_5_279
*1586 FILLER_0_5_281
*1587 FILLER_0_5_293
*1588 FILLER_0_5_3
*1589 FILLER_0_5_305
*1590 FILLER_0_5_317
*1591 FILLER_0_5_329
*1592 FILLER_0_5_335
*1593 FILLER_0_5_337
*1594 FILLER_0_5_349
*1595 FILLER_0_5_39
*1596 FILLER_0_5_51
*1597 FILLER_0_5_55
*1598 FILLER_0_5_57
*1599 FILLER_0_5_69
*1600 FILLER_0_5_81
*1601 FILLER_0_5_93
*1602 FILLER_0_6_109
*1603 FILLER_0_6_121
*1604 FILLER_0_6_133
*1605 FILLER_0_6_139
*1606 FILLER_0_6_141
*1607 FILLER_0_6_15
*1608 FILLER_0_6_153
*1609 FILLER_0_6_165
*1610 FILLER_0_6_177
*1611 FILLER_0_6_189
*1612 FILLER_0_6_195
*1613 FILLER_0_6_197
*1614 FILLER_0_6_209
*1615 FILLER_0_6_221
*1616 FILLER_0_6_233
*1617 FILLER_0_6_245
*1618 FILLER_0_6_251
*1619 FILLER_0_6_253
*1620 FILLER_0_6_265
*1621 FILLER_0_6_27
*1622 FILLER_0_6_277
*1623 FILLER_0_6_289
*1624 FILLER_0_6_29
*1625 FILLER_0_6_3
*1626 FILLER_0_6_301
*1627 FILLER_0_6_307
*1628 FILLER_0_6_309
*1629 FILLER_0_6_321
*1630 FILLER_0_6_333
*1631 FILLER_0_6_345
*1632 FILLER_0_6_41
*1633 FILLER_0_6_53
*1634 FILLER_0_6_65
*1635 FILLER_0_6_77
*1636 FILLER_0_6_83
*1637 FILLER_0_6_85
*1638 FILLER_0_6_97
*1639 FILLER_0_7_105
*1640 FILLER_0_7_111
*1641 FILLER_0_7_113
*1642 FILLER_0_7_125
*1643 FILLER_0_7_137
*1644 FILLER_0_7_149
*1645 FILLER_0_7_15
*1646 FILLER_0_7_161
*1647 FILLER_0_7_167
*1648 FILLER_0_7_169
*1649 FILLER_0_7_181
*1650 FILLER_0_7_193
*1651 FILLER_0_7_205
*1652 FILLER_0_7_217