*SPEF "ieee 1481-1999"
*DESIGN "tt_um_prg"
*DATE "11:11:11 Fri 11 11, 1111"
*VENDOR "OpenRCX"
*PROGRAM "Parallel Extraction"
*VERSION "1.0"
*DESIGN_FLOW "NAME_SCOPE LOCAL" "PIN_CAP NONE"
*DIVIDER /
*DELIMITER :
*BUS_DELIMITER []
*T_UNIT 1 NS
*C_UNIT 1 PF
*R_UNIT 1 OHM
*L_UNIT 1 HENRY

*NAME_MAP
*3 clk
*4 ena
*5 rst_n
*6 ui_in[0]
*7 ui_in[1]
*8 ui_in[2]
*9 ui_in[3]
*10 ui_in[4]
*11 ui_in[5]
*12 ui_in[6]
*13 ui_in[7]
*14 uio_in[0]
*15 uio_in[1]
*16 uio_in[2]
*17 uio_in[3]
*18 uio_in[4]
*19 uio_in[5]
*20 uio_in[6]
*21 uio_in[7]
*22 net43
*23 net44
*24 net45
*25 net46
*26 net47
*27 net48
*28 net49
*29 net50
*30 uio_out[0]
*31 net36
*32 net37
*33 net38
*34 net39
*35 net40
*36 net41
*37 net42
*38 uo_out[0]
*39 uo_out[1]
*40 uo_out[2]
*41 uo_out[3]
*42 uo_out[4]
*43 uo_out[5]
*44 uo_out[6]
*45 uo_out[7]
*46 _0000_
*47 _0001_
*48 _0002_
*49 _0003_
*50 _0004_
*51 _0005_
*52 _0006_
*53 _0007_
*54 _0008_
*55 _0009_
*56 _0010_
*57 _0011_
*58 _0012_
*59 _0013_
*60 _0014_
*61 _0015_
*62 _0016_
*63 _0017_
*64 _0018_
*65 _0019_
*66 _0020_
*67 _0021_
*68 _0022_
*69 _0023_
*70 _0024_
*71 _0025_
*72 _0026_
*73 _0027_
*74 _0028_
*75 _0029_
*76 _0030_
*77 _0031_
*78 _0032_
*79 _0033_
*80 _0034_
*81 _0035_
*82 _0036_
*83 _0037_
*84 _0038_
*85 _0039_
*86 _0040_
*87 _0041_
*88 _0042_
*89 _0043_
*90 _0044_
*91 _0045_
*92 _0046_
*93 _0047_
*94 _0048_
*95 _0049_
*96 _0050_
*97 _0051_
*98 _0052_
*99 _0053_
*100 _0054_
*101 _0055_
*102 _0056_
*103 _0057_
*104 _0058_
*105 _0059_
*106 _0060_
*107 _0061_
*108 _0062_
*109 _0063_
*110 _0064_
*111 _0065_
*112 _0066_
*113 _0067_
*114 _0068_
*115 _0069_
*116 _0070_
*117 _0071_
*118 _0072_
*119 _0073_
*120 _0074_
*121 _0075_
*122 _0076_
*123 _0077_
*124 _0078_
*125 _0079_
*126 _0080_
*127 _0081_
*128 _0082_
*129 _0083_
*130 _0084_
*131 _0085_
*132 _0086_
*133 _0087_
*134 _0088_
*135 _0089_
*136 _0090_
*137 _0091_
*138 _0092_
*139 _0093_
*140 _0094_
*141 _0095_
*142 _0096_
*143 _0097_
*144 _0098_
*145 _0099_
*146 _0100_
*147 _0101_
*148 _0102_
*149 _0103_
*150 _0104_
*151 _0105_
*152 _0106_
*153 _0107_
*154 _0108_
*155 _0109_
*156 _0110_
*157 _0111_
*158 _0112_
*159 _0113_
*160 _0114_
*161 _0115_
*162 _0116_
*163 _0117_
*164 _0118_
*165 _0119_
*166 _0120_
*167 _0121_
*168 _0122_
*169 _0123_
*170 _0124_
*171 _0125_
*172 _0126_
*173 _0127_
*174 _0128_
*175 _0129_
*176 _0130_
*177 _0131_
*178 _0132_
*179 _0133_
*180 _0134_
*181 _0135_
*182 _0136_
*183 _0137_
*184 _0138_
*185 _0139_
*186 _0140_
*187 _0141_
*188 _0142_
*189 _0143_
*190 _0144_
*191 _0145_
*192 _0146_
*193 _0147_
*194 _0148_
*195 _0149_
*196 _0150_
*197 _0151_
*198 _0152_
*199 _0153_
*200 _0154_
*201 _0155_
*202 _0156_
*203 _0157_
*204 _0158_
*205 _0159_
*206 _0160_
*207 _0161_
*208 _0162_
*209 _0163_
*210 _0164_
*211 _0165_
*212 _0166_
*213 _0167_
*214 _0168_
*215 _0169_
*216 _0170_
*217 _0171_
*218 _0172_
*219 _0173_
*220 _0174_
*221 _0175_
*222 _0176_
*223 _0177_
*224 _0178_
*225 _0179_
*226 _0180_
*227 _0181_
*228 _0182_
*229 _0183_
*230 _0184_
*231 _0185_
*232 _0186_
*233 _0187_
*234 _0188_
*235 _0189_
*236 _0190_
*237 _0191_
*238 _0192_
*239 _0193_
*240 _0194_
*241 _0195_
*242 _0196_
*243 _0197_
*244 _0198_
*245 _0199_
*246 _0200_
*247 _0201_
*248 _0202_
*249 _0203_
*250 _0204_
*251 _0205_
*252 _0206_
*253 _0207_
*254 _0208_
*255 _0209_
*256 _0210_
*257 _0211_
*258 _0212_
*259 _0213_
*260 _0214_
*261 _0215_
*262 _0216_
*263 _0217_
*264 _0218_
*265 _0219_
*266 _0220_
*267 _0221_
*268 _0222_
*269 _0223_
*270 _0224_
*271 _0225_
*272 _0226_
*273 _0227_
*274 _0228_
*275 _0229_
*276 _0230_
*277 _0231_
*278 _0232_
*279 _0233_
*280 _0234_
*281 _0235_
*282 _0236_
*283 _0237_
*284 _0238_
*285 _0239_
*286 _0240_
*287 _0241_
*288 _0242_
*289 _0243_
*290 _0244_
*291 _0245_
*292 _0246_
*293 _0247_
*294 _0248_
*295 _0249_
*296 _0250_
*297 _0251_
*298 _0252_
*299 _0253_
*300 _0254_
*301 _0255_
*302 _0256_
*303 _0257_
*304 _0258_
*305 _0259_
*306 _0260_
*307 _0261_
*308 _0262_
*309 _0263_
*310 _0264_
*311 _0265_
*312 _0266_
*313 _0267_
*314 _0268_
*315 _0269_
*316 _0270_
*317 _0271_
*318 _0272_
*319 _0273_
*320 _0274_
*321 _0275_
*322 _0276_
*323 _0277_
*324 _0278_
*325 _0279_
*326 _0280_
*327 _0281_
*328 _0282_
*329 _0283_
*330 _0284_
*331 _0285_
*332 _0286_
*333 _0287_
*334 _0288_
*335 _0289_
*336 _0290_
*337 _0291_
*338 _0292_
*339 _0293_
*340 _0294_
*341 _0295_
*342 _0296_
*343 _0297_
*344 _0298_
*345 _0299_
*346 _0300_
*347 _0301_
*348 _0302_
*349 _0303_
*350 _0304_
*351 _0305_
*352 _0306_
*353 _0307_
*354 _0308_
*355 _0309_
*356 _0310_
*357 _0311_
*358 _0312_
*359 _0313_
*360 _0314_
*361 _0315_
*362 _0316_
*363 _0317_
*364 _0318_
*365 _0319_
*366 _0320_
*367 _0321_
*368 _0322_
*369 _0323_
*370 _0324_
*371 _0325_
*372 _0326_
*373 _0327_
*374 _0328_
*375 _0329_
*376 _0330_
*377 _0331_
*378 _0332_
*379 _0333_
*380 _0334_
*381 _0335_
*382 _0336_
*383 _0337_
*384 _0338_
*385 _0339_
*386 _0340_
*387 _0341_
*388 _0342_
*389 _0343_
*390 _0344_
*391 _0345_
*392 _0346_
*393 _0347_
*394 _0348_
*395 _0349_
*396 _0350_
*397 _0351_
*398 _0352_
*399 _0353_
*400 _0354_
*401 _0355_
*402 _0356_
*403 _0357_
*404 _0358_
*405 _0359_
*406 _0360_
*407 _0361_
*408 _0362_
*409 _0363_
*410 _0364_
*411 _0365_
*412 _0366_
*413 _0367_
*414 _0368_
*415 _0369_
*416 _0370_
*417 _0371_
*418 _0372_
*419 _0373_
*420 _0374_
*421 _0375_
*422 _0376_
*423 _0377_
*424 _0378_
*425 _0379_
*426 _0380_
*427 _0381_
*428 _0382_
*429 _0383_
*430 _0384_
*431 _0385_
*432 _0386_
*433 _0387_
*434 _0388_
*435 _0389_
*436 _0390_
*437 _0391_
*438 _0392_
*439 _0393_
*440 _0394_
*441 _0395_
*442 _0396_
*443 _0397_
*444 _0398_
*445 _0399_
*446 _0400_
*447 _0401_
*448 _0402_
*449 _0403_
*450 _0404_
*451 _0405_
*452 _0406_
*453 _0407_
*454 _0408_
*455 _0409_
*456 _0410_
*457 _0411_
*458 _0412_
*459 _0413_
*460 _0414_
*461 _0415_
*462 _0416_
*463 _0417_
*464 _0418_
*465 _0419_
*466 _0420_
*467 _0421_
*468 _0422_
*469 _0423_
*470 _0424_
*471 _0425_
*472 _0426_
*473 _0427_
*474 _0428_
*475 _0429_
*476 _0430_
*477 _0431_
*478 _0432_
*479 _0433_
*480 _0434_
*481 _0435_
*482 _0436_
*483 _0437_
*484 _0438_
*485 _0439_
*486 _0440_
*487 _0441_
*488 _0442_
*489 _0443_
*490 _0444_
*491 _0445_
*492 _0446_
*493 _0447_
*494 _0448_
*495 _0449_
*496 _0450_
*497 _0451_
*498 _0452_
*499 _0453_
*500 _0454_
*501 _0455_
*502 _0456_
*503 _0457_
*504 clknet_0_clk
*505 clknet_4_0_0_clk
*506 clknet_4_10_0_clk
*507 clknet_4_11_0_clk
*508 clknet_4_12_0_clk
*509 clknet_4_13_0_clk
*510 clknet_4_14_0_clk
*511 clknet_4_15_0_clk
*512 clknet_4_1_0_clk
*513 clknet_4_2_0_clk
*514 clknet_4_3_0_clk
*515 clknet_4_4_0_clk
*516 clknet_4_5_0_clk
*517 clknet_4_6_0_clk
*518 clknet_4_7_0_clk
*519 clknet_4_8_0_clk
*520 clknet_4_9_0_clk
*521 count\[0\]
*522 count\[1\]
*523 net1
*524 net10
*525 net11
*526 net12
*527 net13
*528 net14
*529 net15
*530 net16
*531 net17
*532 net18
*533 net19
*534 net2
*535 net20
*536 net21
*537 net22
*538 net23
*539 net24
*540 net25
*541 net26
*542 net27
*543 net28
*544 net29
*545 net3
*546 net30
*547 net31
*548 net32
*549 net33
*550 net34
*551 net35
*552 net4
*553 net5
*554 net51
*555 net52
*556 net53
*557 net54
*558 net55
*559 net56
*560 net57
*561 net58
*562 net59
*563 net6
*564 net60
*565 net61
*566 net62
*567 net63
*568 net64
*569 net65
*570 net66
*571 net67
*572 net68
*573 net69
*574 net7
*575 net70
*576 net71
*577 net72
*578 net73
*579 net74
*580 net75
*581 net76
*582 net77
*583 net78
*584 net79
*585 net8
*586 net9
*587 out_count\[0\]
*588 out_count\[1\]
*589 out_ready
*590 uut\.R0\[0\]
*591 uut\.R0\[1\]
*592 uut\.R0\[2\]
*593 uut\.R0\[3\]
*594 uut\.R0\[4\]
*595 uut\.R0\[5\]
*596 uut\.R0\[6\]
*597 uut\.R0\[7\]
*598 uut\.R1\[0\]
*599 uut\.R1\[1\]
*600 uut\.R1\[2\]
*601 uut\.R1\[3\]
*602 uut\.R1\[4\]
*603 uut\.R1\[5\]
*604 uut\.R1\[6\]
*605 uut\.R1\[7\]
*606 uut\.in1\[0\]
*607 uut\.in1\[1\]
*608 uut\.in1\[2\]
*609 uut\.in1\[3\]
*610 uut\.in1\[4\]
*611 uut\.in1\[5\]
*612 uut\.in1\[6\]
*613 uut\.in1\[7\]
*614 uut\.in2\[0\]
*615 uut\.in2\[1\]
*616 uut\.in2\[2\]
*617 uut\.in2\[3\]
*618 uut\.in2\[4\]
*619 uut\.in2\[5\]
*620 uut\.in2\[6\]
*621 uut\.in2\[7\]
*622 uut\.in3\[0\]
*623 uut\.in3\[1\]
*624 uut\.in3\[2\]
*625 uut\.in3\[3\]
*626 uut\.in3\[4\]
*627 uut\.in3\[5\]
*628 uut\.in3\[6\]
*629 uut\.in3\[7\]
*630 uut\.mod_inv\.inv_in1\[0\]
*631 uut\.mod_inv\.inv_in1\[1\]
*632 uut\.mod_inv\.inv_in1\[2\]
*633 uut\.mod_inv\.inv_in1\[3\]
*634 uut\.mod_inv\.inv_in2\[0\]
*635 uut\.mod_inv\.inv_in2\[1\]
*636 uut\.mod_inv\.inv_in2\[2\]
*637 uut\.mod_inv\.inv_in2\[3\]
*638 uut\.mod_inv\.inv_in3\[0\]
*639 uut\.mod_inv\.inv_in3\[1\]
*640 uut\.mod_inv\.inv_in3\[2\]
*641 uut\.mod_inv\.inv_in3\[3\]
*642 uut\.mod_inv\.inv_in4\[0\]
*643 uut\.mod_inv\.inv_in4\[1\]
*644 uut\.mod_inv\.inv_in4\[2\]
*645 uut\.mod_inv\.inv_in4\[3\]
*646 uut\.mod_inv\.inv_mod/_000_
*647 uut\.mod_inv\.inv_mod/_001_
*648 uut\.mod_inv\.inv_mod/_002_
*649 uut\.mod_inv\.inv_mod/_003_
*650 uut\.mod_inv\.inv_mod/_004_
*651 uut\.mod_inv\.inv_mod/_005_
*652 uut\.mod_inv\.inv_mod/_006_
*653 uut\.mod_inv\.inv_mod/_007_
*654 uut\.mod_inv\.inv_mod/_008_
*655 uut\.mod_inv\.inv_mod/_009_
*656 uut\.mod_inv\.inv_mod/_010_
*657 uut\.mod_inv\.inv_mod/_011_
*658 uut\.mod_inv\.inv_mod/_012_
*659 uut\.mod_inv\.inv_mod/_013_
*660 uut\.mod_inv\.inv_mod/_014_
*661 uut\.mod_inv\.inv_mod/_015_
*662 uut\.mod_inv\.inv_mod/_016_
*663 uut\.mod_inv\.inv_mod/_017_
*664 uut\.mod_inv\.inv_mod/_018_
*665 uut\.mod_inv\.inv_mod/_019_
*666 uut\.mod_inv\.inv_mod/_020_
*667 uut\.mod_inv\.inv_mod/_021_
*668 uut\.mod_inv\.inv_mod/_022_
*669 uut\.mod_inv\.inv_mod/_023_
*670 uut\.mod_inv\.inv_mod/_024_
*671 uut\.mod_inv\.inv_mod/_025_
*672 uut\.mod_inv\.inv_mod/_026_
*673 uut\.mod_inv\.inv_mod/_027_
*674 uut\.mod_inv\.inv_mod/_028_
*675 uut\.mod_inv\.inv_mod/_029_
*676 uut\.mod_inv\.inv_mod/_030_
*677 uut\.mod_inv\.inv_mod/_031_
*678 uut\.mod_inv\.inv_mod/_032_
*679 uut\.mod_inv\.inv_mod/_033_
*680 uut\.mod_inv\.inv_mod/_034_
*681 uut\.mod_inv\.inv_mod/_035_
*682 uut\.mod_inv\.inv_mod/_036_
*683 uut\.mod_inv\.inv_mod/_037_
*684 uut\.mod_inv\.inv_mod/_038_
*685 uut\.mod_inv\.inv_mod/_039_
*686 uut\.mod_inv\.inv_mod/_040_
*687 uut\.mod_inv\.inv_mod/_041_
*688 uut\.mod_inv\.inv_mod/_042_
*689 uut\.mod_inv\.inv_mod/_043_
*690 uut\.mod_inv\.inv_mod/_044_
*691 uut\.mod_inv\.inv_mod/_045_
*692 uut\.mod_inv\.inv_mod/_046_
*693 uut\.mod_inv\.inv_mod/_047_
*694 uut\.mod_inv\.inv_mod/_048_
*695 uut\.mod_inv\.inv_mod/_049_
*696 uut\.mod_inv\.inv_mod/_050_
*697 uut\.mod_inv\.inv_mod/_051_
*698 uut\.mod_inv\.inv_mod/_052_
*699 uut\.mod_inv\.inv_mod/_053_
*700 uut\.mod_inv\.inv_mod/_054_
*701 uut\.mod_inv\.inv_mod/_055_
*702 uut\.mod_inv\.inv_mod/_056_
*703 uut\.mod_inv\.inv_mod/_057_
*704 uut\.mod_inv\.inv_mod/_058_
*705 uut\.mod_inv\.inv_mod/_059_
*706 uut\.mod_inv\.inv_mod/_060_
*707 uut\.mod_inv\.inv_mod/_061_
*708 uut\.mod_inv\.inv_mod/_062_
*709 uut\.mod_inv\.inv_mod/_063_
*710 uut\.mod_inv\.inv_mod/_064_
*711 uut\.mod_inv\.inv_mod/_065_
*712 uut\.mod_inv\.inv_mod/_066_
*713 uut\.mod_inv\.inv_mod/_067_
*714 uut\.mod_inv\.inv_mod/_068_
*715 uut\.mod_inv\.inv_mod/_069_
*716 uut\.mod_inv\.inv_mod/_070_
*717 uut\.mod_inv\.inv_mod/_071_
*718 uut\.mod_inv\.inv_mod/_072_
*719 uut\.mod_inv\.inv_mod/_073_
*720 uut\.mod_inv\.inv_mod/_074_
*721 uut\.mod_inv\.inv_mod/_075_
*722 uut\.mod_inv\.inv_mod/_076_
*723 uut\.mod_inv\.inv_mod/_077_
*724 uut\.mod_inv\.inv_mod/_078_
*725 uut\.mod_inv\.inv_mod/_079_
*726 uut\.mod_inv\.inv_mod/_080_
*727 uut\.mod_inv\.inv_mod/_081_
*728 uut\.mod_inv\.inv_mod/_082_
*729 uut\.mod_inv\.inv_mod/_083_
*730 uut\.mod_inv\.inv_mod/_084_
*731 uut\.mod_inv\.inv_mod/_085_
*732 uut\.mod_inv\.inv_mod/_086_
*733 uut\.mod_inv\.inv_mod/_087_
*734 uut\.mod_inv\.inv_mod/_088_
*735 uut\.mod_inv\.inv_mod/_089_
*736 uut\.mod_inv\.inv_mod/_090_
*737 uut\.mod_inv\.inv_mod/_091_
*738 uut\.mod_inv\.inv_mod/_092_
*739 uut\.mod_inv\.inv_mod/_093_
*740 uut\.mod_inv\.inv_mod/_094_
*741 uut\.mod_inv\.inv_mod/_095_
*742 uut\.mod_inv\.inv_mod/_096_
*743 uut\.mod_inv\.inv_mod/_097_
*744 uut\.mod_inv\.inv_mod/_098_
*745 uut\.mod_inv\.inv_mod/_099_
*746 uut\.mod_inv\.inv_mod/_100_
*747 uut\.mod_inv\.inv_mod/_101_
*748 uut\.mod_inv\.inv_mod/_102_
*749 uut\.mod_inv\.inv_mod/_103_
*750 uut\.mod_inv\.inv_mod/_104_
*751 uut\.mod_inv\.inv_mod/_105_
*752 uut\.mod_inv\.inv_mod/_106_
*753 uut\.mod_inv\.inv_mod/_107_
*754 uut\.mod_inv\.inv_mod/_108_
*755 uut\.mod_inv\.inv_mod/_109_
*756 uut\.mod_inv\.inv_mod/_110_
*757 uut\.mod_inv\.inv_mod/_111_
*758 uut\.mod_inv\.inv_mod/_112_
*759 uut\.mod_inv\.inv_mod/_113_
*760 uut\.mod_inv\.inv_mod/_114_
*761 uut\.mod_inv\.inv_mod/_115_
*762 uut\.mod_inv\.inv_mod/_116_
*763 uut\.mod_inv\.inv_mod/_117_
*764 uut\.mod_inv\.inv_mod/_118_
*765 uut\.mod_inv\.inv_mod/_119_
*766 uut\.mod_inv\.inv_mod/_120_
*767 uut\.mod_inv\.inv_mod/_121_
*768 uut\.mod_inv\.inv_mod/_122_
*769 uut\.mod_inv\.inv_mod/_123_
*770 uut\.mod_inv\.inv_mod/_124_
*771 uut\.mod_inv\.inv_mod/_125_
*772 uut\.mod_inv\.inv_mod/_126_
*773 uut\.mod_inv\.inv_mod/_127_
*774 uut\.mod_inv\.inv_mod/_128_
*775 uut\.mod_inv\.inv_mod/_129_
*776 uut\.mod_inv\.inv_mod/_130_
*777 uut\.mod_inv\.inv_mod/_131_
*778 uut\.mod_inv\.inv_mod/_132_
*779 uut\.mod_inv\.inv_mod/_133_
*780 uut\.mod_inv\.inv_mod/_134_
*781 uut\.mod_inv\.inv_mod/_135_
*782 uut\.mod_inv\.inv_mod/_136_
*783 uut\.mod_inv\.inv_mod/_137_
*784 uut\.mod_inv\.inv_mod/_138_
*785 uut\.mod_inv\.inv_mod/_139_
*786 uut\.mod_inv\.inv_mod/_140_
*787 uut\.mod_inv\.inv_mod/_141_
*788 uut\.mod_inv\.inv_mod/_142_
*789 uut\.mod_inv\.inv_mod/_143_
*790 uut\.mod_inv\.inv_mod/_144_
*791 uut\.mod_inv\.inv_mod/_145_
*792 uut\.mod_inv\.inv_mod/_146_
*793 uut\.mod_inv\.inv_mod/_147_
*794 uut\.mod_inv\.inv_mod/_148_
*795 uut\.mod_inv\.inv_mod/_149_
*796 uut\.mod_inv\.inv_mod/_150_
*797 uut\.mod_inv\.inv_mod/_151_
*798 uut\.mod_inv\.inv_mod/_152_
*799 uut\.mod_inv\.inv_mod/_153_
*800 uut\.mod_inv\.inv_mod/_154_
*801 uut\.mod_inv\.inv_mod/_155_
*802 uut\.mod_inv\.inv_mod/_156_
*803 uut\.mod_inv\.inv_mod/_157_
*804 uut\.mod_inv\.inv_mod/_158_
*805 uut\.mod_inv\.inv_mod/_159_
*806 uut\.mod_inv\.inv_mod/_160_
*807 uut\.mod_inv\.inv_mod/_161_
*808 uut\.mod_inv\.inv_mod/_162_
*809 uut\.mod_inv\.inv_mod/_163_
*810 uut\.mod_inv\.inv_mod/_164_
*811 uut\.mod_inv\.inv_mod/_165_
*812 uut\.mod_inv\.inv_mod/_166_
*813 uut\.mod_inv\.inv_mod/_167_
*814 uut\.mod_inv\.inv_mod/_168_
*815 uut\.mod_inv\.inv_mod/_169_
*816 uut\.mod_inv\.inv_mod/_170_
*817 uut\.mod_inv\.inv_mod/_171_
*818 uut\.mod_inv\.inv_mod/_172_
*819 uut\.mod_inv\.inv_mod/_173_
*820 uut\.mod_inv\.inv_mod/_174_
*821 uut\.mod_inv\.inv_mod/_175_
*822 uut\.mod_inv\.inv_mod/_176_
*823 uut\.mod_inv\.inv_mod/_177_
*824 uut\.mod_inv\.inv_mod/_178_
*825 uut\.mod_inv\.inv_mod/_179_
*826 uut\.mod_inv\.inv_mod/_180_
*827 uut\.mod_inv\.inv_mod/_181_
*828 uut\.mod_inv\.inv_mod/_182_
*829 uut\.mod_inv\.inv_mod/_183_
*830 uut\.mod_inv\.inv_mod/_184_
*831 uut\.mod_inv\.inv_mod/_185_
*832 uut\.mod_inv\.inv_mod/_186_
*833 uut\.mod_inv\.inv_mod/_187_
*834 uut\.mod_inv\.inv_mod/_188_
*835 uut\.mod_inv\.inv_mod/_189_
*836 uut\.mod_inv\.inv_mod/_190_
*837 uut\.mod_inv\.inv_mod/_191_
*838 uut\.mod_inv\.inv_mod/_192_
*839 uut\.mod_inv\.inv_mod/_193_
*840 uut\.mod_inv\.inv_mod/_194_
*841 uut\.mod_inv\.inv_mod/_195_
*842 uut\.mod_inv\.inv_mod/_196_
*843 uut\.mod_inv\.inv_mod/_197_
*844 uut\.mod_inv\.inv_mod/_198_
*845 uut\.mod_inv\.inv_mod/_199_
*846 uut\.mod_inv\.inv_mod/_200_
*847 uut\.mod_inv\.inv_mod/_201_
*848 uut\.mod_inv\.inv_mod/_202_
*849 uut\.mod_inv\.inv_mod/_203_
*850 uut\.mod_inv\.inv_mod/_204_
*851 uut\.mod_inv\.inv_mod/_205_
*852 uut\.mod_inv\.inv_mod/_206_
*853 uut\.mod_inv\.inv_mod/_207_
*854 uut\.mod_inv\.inv_mod/_208_
*855 uut\.mod_inv\.inv_mod/_209_
*856 uut\.mod_inv\.inv_mod/_210_
*857 uut\.mod_inv\.inv_mod/_211_
*858 uut\.mod_inv\.inv_mod/_212_
*859 uut\.mod_inv\.inv_mod/_213_
*860 uut\.mod_inv\.inv_mod/_214_
*861 uut\.mod_inv\.inv_mod/_215_
*862 uut\.mod_inv\.inv_mod/_216_
*863 uut\.mod_inv\.inv_mod/_217_
*864 uut\.mod_inv\.inv_mod/_218_
*865 uut\.mod_inv\.inv_mod/_219_
*866 uut\.mod_inv\.inv_mod/_220_
*867 uut\.mod_inv\.inv_mod/_221_
*868 uut\.mod_inv\.inv_mod/_222_
*869 uut\.mod_inv\.inv_mod/_223_
*870 uut\.mod_inv\.inv_mod/_224_
*871 uut\.mod_inv\.inv_mod/_225_
*872 uut\.mod_inv\.inv_mod/_226_
*873 uut\.mod_inv\.inv_mod/_227_
*874 uut\.mod_inv\.inv_mod/_228_
*875 uut\.mod_inv\.inv_mod/_229_
*876 uut\.mod_inv\.inv_mod/_230_
*877 uut\.mod_inv\.inv_mod/_231_
*878 uut\.mod_inv\.inv_mod/_232_
*879 uut\.mod_inv\.inv_mod/_233_
*880 uut\.mod_inv\.inv_mod/_234_
*881 uut\.mod_inv\.inv_mod/_235_
*882 uut\.mod_inv\.inv_mod/_236_
*883 uut\.mod_inv\.inv_mod/_237_
*884 uut\.mod_inv\.inv_mod/_238_
*885 uut\.mod_inv\.inv_mod/_239_
*886 uut\.mod_inv\.inv_mod/_240_
*887 uut\.mod_inv\.inv_mod/_241_
*888 uut\.mod_inv\.inv_mod/_242_
*889 uut\.mod_inv\.inv_mod/_243_
*890 uut\.mod_inv\.inv_mod/_244_
*891 uut\.mod_inv\.inv_mod/_245_
*892 uut\.mod_inv\.inv_mod/_246_
*893 uut\.mod_inv\.inv_mod/_247_
*894 uut\.mod_inv\.inv_mod/_248_
*895 uut\.mod_inv\.inv_mod/_249_
*896 uut\.mod_inv\.inv_mod/_250_
*897 uut\.mod_inv\.inv_mod/_251_
*898 uut\.mod_inv\.inv_mod/_252_
*899 uut\.mod_inv\.inv_mod/_253_
*900 uut\.mod_inv\.inv_mod/_254_
*901 uut\.mod_inv\.inv_mod/_255_
*902 uut\.mod_inv\.inv_mod/_256_
*903 uut\.mod_inv\.inv_mod/_257_
*904 uut\.mod_inv\.inv_mod/_258_
*905 uut\.mod_inv\.inv_mod/_259_
*906 uut\.mod_inv\.inv_mod/_260_
*907 uut\.mod_inv\.inv_mod/_261_
*908 uut\.mod_inv\.inv_mod/_262_
*909 uut\.mod_inv\.inv_mod/_263_
*910 uut\.mod_inv\.inv_mod/_264_
*911 uut\.mod_inv\.inv_mod/_265_
*912 uut\.mod_inv\.inv_mod/_266_
*913 uut\.mod_inv\.inv_mod/_267_
*914 uut\.mod_inv\.inv_mod/_268_
*915 uut\.mod_inv\.inv_mod/_269_
*916 uut\.mod_inv\.inv_mod/_270_
*917 uut\.mod_inv\.inv_out1\[0\]
*918 uut\.mod_inv\.inv_out1\[1\]
*919 uut\.mod_inv\.inv_out1\[2\]
*920 uut\.mod_inv\.inv_out1\[3\]
*921 uut\.mod_inv\.inv_out1_reg\[0\]
*922 uut\.mod_inv\.inv_out1_reg\[1\]
*923 uut\.mod_inv\.inv_out1_reg\[2\]
*924 uut\.mod_inv\.inv_out1_reg\[3\]
*925 uut\.mod_inv\.inv_out2\[0\]
*926 uut\.mod_inv\.inv_out2\[1\]
*927 uut\.mod_inv\.inv_out2\[2\]
*928 uut\.mod_inv\.inv_out2\[3\]
*929 uut\.mod_inv\.inv_out2_xor\[0\]
*930 uut\.mod_inv\.inv_out2_xor\[1\]
*931 uut\.mod_inv\.inv_out2_xor\[2\]
*932 uut\.mod_inv\.inv_out2_xor\[3\]
*933 uut\.mod_inv\.inv_out3\[0\]
*934 uut\.mod_inv\.inv_out3\[1\]
*935 uut\.mod_inv\.inv_out3\[2\]
*936 uut\.mod_inv\.inv_out3\[3\]
*937 uut\.mod_inv\.inv_out3_xor\[0\]
*938 uut\.mod_inv\.inv_out3_xor\[1\]
*939 uut\.mod_inv\.inv_out3_xor\[2\]
*940 uut\.mod_inv\.inv_out3_xor\[3\]
*941 uut\.mod_inv\.inv_out4\[0\]
*942 uut\.mod_inv\.inv_out4\[1\]
*943 uut\.mod_inv\.inv_out4\[2\]
*944 uut\.mod_inv\.inv_out4\[3\]
*945 uut\.mod_inv\.inv_out4_reg\[0\]
*946 uut\.mod_inv\.inv_out4_reg\[1\]
*947 uut\.mod_inv\.inv_out4_reg\[2\]
*948 uut\.mod_inv\.inv_out4_reg\[3\]
*949 uut\.mod_inv\.mod_mul1/_000_
*950 uut\.mod_inv\.mod_mul1/_001_
*951 uut\.mod_inv\.mod_mul1/_002_
*952 uut\.mod_inv\.mod_mul1/_003_
*953 uut\.mod_inv\.mod_mul1/_004_
*954 uut\.mod_inv\.mod_mul1/_005_
*955 uut\.mod_inv\.mod_mul1/_006_
*956 uut\.mod_inv\.mod_mul1/_007_
*957 uut\.mod_inv\.mod_mul1/_008_
*958 uut\.mod_inv\.mod_mul1/_009_
*959 uut\.mod_inv\.mod_mul1/_010_
*960 uut\.mod_inv\.mod_mul1/_011_
*961 uut\.mod_inv\.mod_mul1/_012_
*962 uut\.mod_inv\.mod_mul1/_013_
*963 uut\.mod_inv\.mod_mul1/_014_
*964 uut\.mod_inv\.mod_mul1/_015_
*965 uut\.mod_inv\.mod_mul1/_016_
*966 uut\.mod_inv\.mod_mul1/_017_
*967 uut\.mod_inv\.mod_mul1/_018_
*968 uut\.mod_inv\.mod_mul1/_019_
*969 uut\.mod_inv\.mod_mul1/_020_
*970 uut\.mod_inv\.mod_mul1/_021_
*971 uut\.mod_inv\.mod_mul1/_022_
*972 uut\.mod_inv\.mod_mul1/_023_
*973 uut\.mod_inv\.mod_mul1/_024_
*974 uut\.mod_inv\.mod_mul1/_025_
*975 uut\.mod_inv\.mod_mul1/_026_
*976 uut\.mod_inv\.mod_mul1/_027_
*977 uut\.mod_inv\.mod_mul1/_028_
*978 uut\.mod_inv\.mod_mul1/_029_
*979 uut\.mod_inv\.mod_mul1/_030_
*980 uut\.mod_inv\.mod_mul1/_031_
*981 uut\.mod_inv\.mod_mul1/_032_
*982 uut\.mod_inv\.mod_mul1/_033_
*983 uut\.mod_inv\.mod_mul1/_034_
*984 uut\.mod_inv\.mod_mul1/_035_
*985 uut\.mod_inv\.mod_mul1/_036_
*986 uut\.mod_inv\.mod_mul1/_037_
*987 uut\.mod_inv\.mod_mul1/_038_
*988 uut\.mod_inv\.mod_mul1/_039_
*989 uut\.mod_inv\.mod_mul1/_040_
*990 uut\.mod_inv\.mod_mul1/_041_
*991 uut\.mod_inv\.mod_mul1/_042_
*992 uut\.mod_inv\.mod_mul1/_043_
*993 uut\.mod_inv\.mod_mul1/_044_
*994 uut\.mod_inv\.mod_mul1/_045_
*995 uut\.mod_inv\.mod_mul1/_046_
*996 uut\.mod_inv\.mod_mul1/_047_
*997 uut\.mod_inv\.mod_mul1/_048_
*998 uut\.mod_inv\.mod_mul1/_049_
*999 uut\.mod_inv\.mod_mul1/_050_
*1000 uut\.mod_inv\.mod_mul1/_051_
*1001 uut\.mod_inv\.mod_mul1/_052_
*1002 uut\.mod_inv\.mod_mul1/_053_
*1003 uut\.mod_inv\.mod_mul1/_054_
*1004 uut\.mod_inv\.mod_mul1/_055_
*1005 uut\.mod_inv\.mod_mul1/_056_
*1006 uut\.mod_inv\.mod_mul1/_057_
*1007 uut\.mod_inv\.mod_mul1/_058_
*1008 uut\.mod_inv\.mod_mul1/_059_
*1009 uut\.mod_inv\.mod_mul1/_060_
*1010 uut\.mod_inv\.mod_mul1/_061_
*1011 uut\.mod_inv\.mod_mul1/_062_
*1012 uut\.mod_inv\.mod_mul1/_063_
*1013 uut\.mod_inv\.mod_mul1/_064_
*1014 uut\.mod_inv\.mod_mul1/_065_
*1015 uut\.mod_inv\.mod_mul1/_066_
*1016 uut\.mod_inv\.mod_mul1/_067_
*1017 uut\.mod_inv\.mod_mul1/_068_
*1018 uut\.mod_inv\.mod_mul1/_069_
*1019 uut\.mod_inv\.mod_mul1/_070_
*1020 uut\.mod_inv\.mod_mul1/_071_
*1021 uut\.mod_inv\.mod_mul1/_072_
*1022 uut\.mod_inv\.mod_mul1/_073_
*1023 uut\.mod_inv\.mod_mul1/_074_
*1024 uut\.mod_inv\.mod_mul1/_075_
*1025 uut\.mod_inv\.mod_mul1/_076_
*1026 uut\.mod_inv\.mod_mul1/_077_
*1027 uut\.mod_inv\.mod_mul1/_078_
*1028 uut\.mod_inv\.mod_mul1/_079_
*1029 uut\.mod_inv\.mod_mul1/_080_
*1030 uut\.mod_inv\.mod_mul1/_081_
*1031 uut\.mod_inv\.mod_mul1/_082_
*1032 uut\.mod_inv\.mod_mul1/_083_
*1033 uut\.mod_inv\.mod_mul1/_084_
*1034 uut\.mod_inv\.mod_mul1/_085_
*1035 uut\.mod_inv\.mod_mul1/_086_
*1036 uut\.mod_inv\.mod_mul1/_087_
*1037 uut\.mod_inv\.mod_mul1/_088_
*1038 uut\.mod_inv\.mod_mul1/_089_
*1039 uut\.mod_inv\.mod_mul1/_090_
*1040 uut\.mod_inv\.mod_mul1/_091_
*1041 uut\.mod_inv\.mod_mul1/_092_
*1042 uut\.mod_inv\.mod_mul1/_093_
*1043 uut\.mod_inv\.mod_mul1/_094_
*1044 uut\.mod_inv\.mod_mul1/_095_
*1045 uut\.mod_inv\.mod_mul1/_096_
*1046 uut\.mod_inv\.mod_mul1/_097_
*1047 uut\.mod_inv\.mod_mul1/_098_
*1048 uut\.mod_inv\.mod_mul1/_099_
*1049 uut\.mod_inv\.mod_mul1/_100_
*1050 uut\.mod_inv\.mod_mul1/_101_
*1051 uut\.mod_inv\.mod_mul1/_102_
*1052 uut\.mod_inv\.mod_mul1/_103_
*1053 uut\.mod_inv\.mod_mul1/_104_
*1054 uut\.mod_inv\.mod_mul1/_105_
*1055 uut\.mod_inv\.mod_mul1/_106_
*1056 uut\.mod_inv\.mod_mul1/_107_
*1057 uut\.mod_inv\.mod_mul1/_108_
*1058 uut\.mod_inv\.mod_mul1/_109_
*1059 uut\.mod_inv\.mod_mul1/_110_
*1060 uut\.mod_inv\.mod_mul1/_111_
*1061 uut\.mod_inv\.mod_mul1/_112_
*1062 uut\.mod_inv\.mod_mul1/_113_
*1063 uut\.mod_inv\.mod_mul1/_114_
*1064 uut\.mod_inv\.mod_mul1/_115_
*1065 uut\.mod_inv\.mod_mul1/_116_
*1066 uut\.mod_inv\.mod_mul1/_117_
*1067 uut\.mod_inv\.mod_mul1/_118_
*1068 uut\.mod_inv\.mod_mul1/_119_
*1069 uut\.mod_inv\.mod_mul1/_120_
*1070 uut\.mod_inv\.mod_mul1/_121_
*1071 uut\.mod_inv\.mod_mul1/_122_
*1072 uut\.mod_inv\.mod_mul1/_123_
*1073 uut\.mod_inv\.mod_mul1/_124_
*1074 uut\.mod_inv\.mod_mul1/_125_
*1075 uut\.mod_inv\.mod_mul1/_126_
*1076 uut\.mod_inv\.mod_mul1/_127_
*1077 uut\.mod_inv\.mod_mul1/_128_
*1078 uut\.mod_inv\.mod_mul1/_129_
*1079 uut\.mod_inv\.mod_mul1/_130_
*1080 uut\.mod_inv\.mod_mul1/_131_
*1081 uut\.mod_inv\.mod_mul1/_132_
*1082 uut\.mod_inv\.mod_mul1/_133_
*1083 uut\.mod_inv\.mod_mul1/_134_
*1084 uut\.mod_inv\.mod_mul1/_135_
*1085 uut\.mod_inv\.mod_mul1/_136_
*1086 uut\.mod_inv\.mod_mul1/_137_
*1087 uut\.mod_inv\.mod_mul1/_138_
*1088 uut\.mod_inv\.mod_mul1/_139_
*1089 uut\.mod_inv\.mod_mul1/_140_
*1090 uut\.mod_inv\.mod_mul1/_141_
*1091 uut\.mod_inv\.mod_mul1/_142_
*1092 uut\.mod_inv\.mod_mul1/_143_
*1093 uut\.mod_inv\.mod_mul1/_144_
*1094 uut\.mod_inv\.mod_mul1/_145_
*1095 uut\.mod_inv\.mod_mul1/_146_
*1096 uut\.mod_inv\.mod_mul1/_147_
*1097 uut\.mod_inv\.mod_mul1/_148_
*1098 uut\.mod_inv\.mod_mul1/_149_
*1099 uut\.mod_inv\.mod_mul1/_150_
*1100 uut\.mod_inv\.mod_mul1/_151_
*1101 uut\.mod_inv\.mod_mul1/_152_
*1102 uut\.mod_inv\.mod_mul1/_153_
*1103 uut\.mod_inv\.mod_mul1/_154_
*1104 uut\.mod_inv\.mod_mul1/_155_
*1105 uut\.mod_inv\.mod_mul1/_156_
*1106 uut\.mod_inv\.mod_mul1/_157_
*1107 uut\.mod_inv\.mod_mul1/_158_
*1108 uut\.mod_inv\.mod_mul1/_159_
*1109 uut\.mod_inv\.mod_mul1/_160_
*1110 uut\.mod_inv\.mod_mul1/_161_
*1111 uut\.mod_inv\.mod_mul1/_162_
*1112 uut\.mod_inv\.mod_mul1/_163_
*1113 uut\.mod_inv\.mod_mul1/_164_
*1114 uut\.mod_inv\.mod_mul1/_165_
*1115 uut\.mod_inv\.mod_mul1/_166_
*1116 uut\.mod_inv\.mod_mul1/_167_
*1117 uut\.mod_inv\.mod_mul1/_168_
*1118 uut\.mod_inv\.mod_mul1/_169_
*1119 uut\.mod_inv\.mod_mul1/_170_
*1120 uut\.mod_inv\.mod_mul1/_171_
*1121 uut\.mod_inv\.mod_mul1/_172_
*1122 uut\.mod_inv\.mod_mul1/_173_
*1123 uut\.mod_inv\.mod_mul1/_174_
*1124 uut\.mod_inv\.mod_mul1/_175_
*1125 uut\.mod_inv\.mod_mul1/_176_
*1126 uut\.mod_inv\.mod_mul1/_177_
*1127 uut\.mod_inv\.mod_mul1/_178_
*1128 uut\.mod_inv\.mod_mul1/_179_
*1129 uut\.mod_inv\.mod_mul1/_180_
*1130 uut\.mod_inv\.mod_mul1/_181_
*1131 uut\.mod_inv\.mod_mul1/_182_
*1132 uut\.mod_inv\.mod_mul1/_183_
*1133 uut\.mod_inv\.mod_mul1/_184_
*1134 uut\.mod_inv\.mod_mul1/_185_
*1135 uut\.mod_inv\.mod_mul1/_186_
*1136 uut\.mod_inv\.mod_mul1/_187_
*1137 uut\.mod_inv\.mod_mul1/_188_
*1138 uut\.mod_inv\.mod_mul1/_189_
*1139 uut\.mod_inv\.mod_mul1/_190_
*1140 uut\.mod_inv\.mod_mul1/_191_
*1141 uut\.mod_inv\.mod_mul1/_192_
*1142 uut\.mod_inv\.mod_mul1/_193_
*1143 uut\.mod_inv\.mod_mul1/_194_
*1144 uut\.mod_inv\.mod_mul1/_195_
*1145 uut\.mod_inv\.mod_mul1/_196_
*1146 uut\.mod_inv\.mod_mul1/_197_
*1147 uut\.mod_inv\.mod_mul1/_198_
*1148 uut\.mod_inv\.mod_mul1/_199_
*1149 uut\.mod_inv\.mod_mul1/_200_
*1150 uut\.mod_inv\.mod_mul1/_201_
*1151 uut\.mod_inv\.mod_mul1/_202_
*1152 uut\.mod_inv\.mod_mul1/_203_
*1153 uut\.mod_inv\.mod_mul1/_204_
*1154 uut\.mod_inv\.mod_mul1/_205_
*1155 uut\.mod_inv\.mod_mul1/_206_
*1156 uut\.mod_inv\.mod_mul1/_207_
*1157 uut\.mod_inv\.mod_mul1/_208_
*1158 uut\.mod_inv\.mod_mul1/_209_
*1159 uut\.mod_inv\.mod_mul1/_210_
*1160 uut\.mod_inv\.mod_mul1/_211_
*1161 uut\.mod_inv\.mod_mul1/_212_
*1162 uut\.mod_inv\.mod_mul1/_213_
*1163 uut\.mod_inv\.mod_mul1/_214_
*1164 uut\.mod_inv\.mod_mul1/_215_
*1165 uut\.mod_inv\.mod_mul1/_216_
*1166 uut\.mod_inv\.mod_mul1/_217_
*1167 uut\.mod_inv\.mod_mul1/_218_
*1168 uut\.mod_inv\.mod_mul1/_219_
*1169 uut\.mod_inv\.mod_mul1/_220_
*1170 uut\.mod_inv\.mod_mul1/_221_
*1171 uut\.mod_inv\.mod_mul1/_222_
*1172 uut\.mod_inv\.mod_mul1/_223_
*1173 uut\.mod_inv\.mod_mul1_out1\[0\]
*1174 uut\.mod_inv\.mod_mul1_out1\[1\]
*1175 uut\.mod_inv\.mod_mul1_out1\[2\]
*1176 uut\.mod_inv\.mod_mul1_out1\[3\]
*1177 uut\.mod_inv\.mod_mul1_out1_reg\[0\]
*1178 uut\.mod_inv\.mod_mul1_out1_reg\[1\]
*1179 uut\.mod_inv\.mod_mul1_out1_reg\[2\]
*1180 uut\.mod_inv\.mod_mul1_out1_reg\[3\]
*1181 uut\.mod_inv\.mod_mul1_out2\[0\]
*1182 uut\.mod_inv\.mod_mul1_out2\[1\]
*1183 uut\.mod_inv\.mod_mul1_out2\[2\]
*1184 uut\.mod_inv\.mod_mul1_out2\[3\]
*1185 uut\.mod_inv\.mod_mul1_out2_xor\[0\]
*1186 uut\.mod_inv\.mod_mul1_out2_xor\[1\]
*1187 uut\.mod_inv\.mod_mul1_out2_xor\[2\]
*1188 uut\.mod_inv\.mod_mul1_out2_xor\[3\]
*1189 uut\.mod_inv\.mod_mul1_out3\[0\]
*1190 uut\.mod_inv\.mod_mul1_out3\[1\]
*1191 uut\.mod_inv\.mod_mul1_out3\[2\]
*1192 uut\.mod_inv\.mod_mul1_out3\[3\]
*1193 uut\.mod_inv\.mod_mul2/_000_
*1194 uut\.mod_inv\.mod_mul2/_001_
*1195 uut\.mod_inv\.mod_mul2/_002_
*1196 uut\.mod_inv\.mod_mul2/_003_
*1197 uut\.mod_inv\.mod_mul2/_004_
*1198 uut\.mod_inv\.mod_mul2/_005_
*1199 uut\.mod_inv\.mod_mul2/_006_
*1200 uut\.mod_inv\.mod_mul2/_007_
*1201 uut\.mod_inv\.mod_mul2/_008_
*1202 uut\.mod_inv\.mod_mul2/_009_
*1203 uut\.mod_inv\.mod_mul2/_010_
*1204 uut\.mod_inv\.mod_mul2/_011_
*1205 uut\.mod_inv\.mod_mul2/_012_
*1206 uut\.mod_inv\.mod_mul2/_013_
*1207 uut\.mod_inv\.mod_mul2/_014_
*1208 uut\.mod_inv\.mod_mul2/_015_
*1209 uut\.mod_inv\.mod_mul2/_016_
*1210 uut\.mod_inv\.mod_mul2/_017_
*1211 uut\.mod_inv\.mod_mul2/_018_
*1212 uut\.mod_inv\.mod_mul2/_019_
*1213 uut\.mod_inv\.mod_mul2/_020_
*1214 uut\.mod_inv\.mod_mul2/_021_
*1215 uut\.mod_inv\.mod_mul2/_022_
*1216 uut\.mod_inv\.mod_mul2/_023_
*1217 uut\.mod_inv\.mod_mul2/_024_
*1218 uut\.mod_inv\.mod_mul2/_025_
*1219 uut\.mod_inv\.mod_mul2/_026_
*1220 uut\.mod_inv\.mod_mul2/_027_
*1221 uut\.mod_inv\.mod_mul2/_028_
*1222 uut\.mod_inv\.mod_mul2/_029_
*1223 uut\.mod_inv\.mod_mul2/_030_
*1224 uut\.mod_inv\.mod_mul2/_031_
*1225 uut\.mod_inv\.mod_mul2/_032_
*1226 uut\.mod_inv\.mod_mul2/_033_
*1227 uut\.mod_inv\.mod_mul2/_034_
*1228 uut\.mod_inv\.mod_mul2/_035_
*1229 uut\.mod_inv\.mod_mul2/_036_
*1230 uut\.mod_inv\.mod_mul2/_037_
*1231 uut\.mod_inv\.mod_mul2/_038_
*1232 uut\.mod_inv\.mod_mul2/_039_
*1233 uut\.mod_inv\.mod_mul2/_040_
*1234 uut\.mod_inv\.mod_mul2/_041_
*1235 uut\.mod_inv\.mod_mul2/_042_
*1236 uut\.mod_inv\.mod_mul2/_043_
*1237 uut\.mod_inv\.mod_mul2/_044_
*1238 uut\.mod_inv\.mod_mul2/_045_
*1239 uut\.mod_inv\.mod_mul2/_046_
*1240 uut\.mod_inv\.mod_mul2/_047_
*1241 uut\.mod_inv\.mod_mul2/_048_
*1242 uut\.mod_inv\.mod_mul2/_049_
*1243 uut\.mod_inv\.mod_mul2/_050_
*1244 uut\.mod_inv\.mod_mul2/_051_
*1245 uut\.mod_inv\.mod_mul2/_052_
*1246 uut\.mod_inv\.mod_mul2/_053_
*1247 uut\.mod_inv\.mod_mul2/_054_
*1248 uut\.mod_inv\.mod_mul2/_055_
*1249 uut\.mod_inv\.mod_mul2/_056_
*1250 uut\.mod_inv\.mod_mul2/_057_
*1251 uut\.mod_inv\.mod_mul2/_058_
*1252 uut\.mod_inv\.mod_mul2/_059_
*1253 uut\.mod_inv\.mod_mul2/_060_
*1254 uut\.mod_inv\.mod_mul2/_061_
*1255 uut\.mod_inv\.mod_mul2/_062_
*1256 uut\.mod_inv\.mod_mul2/_063_
*1257 uut\.mod_inv\.mod_mul2/_064_
*1258 uut\.mod_inv\.mod_mul2/_065_
*1259 uut\.mod_inv\.mod_mul2/_066_
*1260 uut\.mod_inv\.mod_mul2/_067_
*1261 uut\.mod_inv\.mod_mul2/_068_
*1262 uut\.mod_inv\.mod_mul2/_069_
*1263 uut\.mod_inv\.mod_mul2/_070_
*1264 uut\.mod_inv\.mod_mul2/_071_
*1265 uut\.mod_inv\.mod_mul2/_072_
*1266 uut\.mod_inv\.mod_mul2/_073_
*1267 uut\.mod_inv\.mod_mul2/_074_
*1268 uut\.mod_inv\.mod_mul2/_075_