*SPEF "ieee 1481-1999"
*DESIGN "tt_um_wokwi_380409488188706817"
*DATE "11:11:11 Fri 11 11, 1111"
*VENDOR "OpenRCX"
*PROGRAM "Parallel Extraction"
*VERSION "1.0"
*DESIGN_FLOW "NAME_SCOPE LOCAL" "PIN_CAP NONE"
*DIVIDER /
*DELIMITER :
*BUS_DELIMITER []
*T_UNIT 1 NS
*C_UNIT 1 PF
*R_UNIT 1 OHM
*L_UNIT 1 HENRY

*NAME_MAP
*3 clk
*4 ena
*5 rst_n
*6 ui_in[0]
*7 ui_in[1]
*8 ui_in[2]
*9 ui_in[3]
*10 ui_in[4]
*11 ui_in[5]
*12 ui_in[6]
*13 ui_in[7]
*14 uio_in[0]
*15 uio_in[1]
*16 uio_in[2]
*17 uio_in[3]
*18 uio_in[4]
*19 uio_in[5]
*20 uio_in[6]
*21 uio_in[7]
*22 net9
*23 net10
*24 net11
*25 net12
*26 net13
*27 net14
*28 net15
*29 net16
*30 net17
*31 net18
*32 net19
*33 net20
*34 net21
*35 net22
*36 net23
*37 net24
*38 uo_out[0]
*39 uo_out[1]
*40 uo_out[2]
*41 uo_out[3]
*42 net25
*43 net26
*44 net27
*45 net28
*46 _00_
*47 _01_
*48 and1\.out
*49 nand1\.out
*50 net1
*51 net2
*52 net3
*53 net4
*54 net5
*55 net6
*56 net7
*57 net8
*58 or2\.out
*59 xor1\.out
*60 FILLER_0_0_109
*61 FILLER_0_0_113
*62 FILLER_0_0_125
*63 FILLER_0_0_137
*64 FILLER_0_0_141
*65 FILLER_0_0_15
*66 FILLER_0_0_153
*67 FILLER_0_0_165
*68 FILLER_0_0_169
*69 FILLER_0_0_181
*70 FILLER_0_0_193
*71 FILLER_0_0_197
*72 FILLER_0_0_209
*73 FILLER_0_0_221
*74 FILLER_0_0_225
*75 FILLER_0_0_237
*76 FILLER_0_0_249
*77 FILLER_0_0_253
*78 FILLER_0_0_265
*79 FILLER_0_0_27
*80 FILLER_0_0_277
*81 FILLER_0_0_281
*82 FILLER_0_0_29
*83 FILLER_0_0_293
*84 FILLER_0_0_3
*85 FILLER_0_0_305
*86 FILLER_0_0_309
*87 FILLER_0_0_321
*88 FILLER_0_0_333
*89 FILLER_0_0_337
*90 FILLER_0_0_349
*91 FILLER_0_0_41
*92 FILLER_0_0_53
*93 FILLER_0_0_57
*94 FILLER_0_0_69
*95 FILLER_0_0_81
*96 FILLER_0_0_85
*97 FILLER_0_0_97
*98 FILLER_0_10_109
*99 FILLER_0_10_121
*100 FILLER_0_10_133
*101 FILLER_0_10_139
*102 FILLER_0_10_141
*103 FILLER_0_10_15
*104 FILLER_0_10_153
*105 FILLER_0_10_165
*106 FILLER_0_10_177
*107 FILLER_0_10_189
*108 FILLER_0_10_195
*109 FILLER_0_10_197
*110 FILLER_0_10_209
*111 FILLER_0_10_221
*112 FILLER_0_10_233
*113 FILLER_0_10_245
*114 FILLER_0_10_251
*115 FILLER_0_10_253
*116 FILLER_0_10_265
*117 FILLER_0_10_27
*118 FILLER_0_10_277
*119 FILLER_0_10_289
*120 FILLER_0_10_29
*121 FILLER_0_10_3
*122 FILLER_0_10_301
*123 FILLER_0_10_307
*124 FILLER_0_10_309
*125 FILLER_0_10_321
*126 FILLER_0_10_333
*127 FILLER_0_10_345
*128 FILLER_0_10_41
*129 FILLER_0_10_53
*130 FILLER_0_10_65
*131 FILLER_0_10_77
*132 FILLER_0_10_83
*133 FILLER_0_10_85
*134 FILLER_0_10_97
*135 FILLER_0_11_105
*136 FILLER_0_11_111
*137 FILLER_0_11_113
*138 FILLER_0_11_125
*139 FILLER_0_11_137
*140 FILLER_0_11_149
*141 FILLER_0_11_15
*142 FILLER_0_11_161
*143 FILLER_0_11_167
*144 FILLER_0_11_169
*145 FILLER_0_11_181
*146 FILLER_0_11_193
*147 FILLER_0_11_205
*148 FILLER_0_11_217
*149 FILLER_0_11_223
*150 FILLER_0_11_225
*151 FILLER_0_11_237
*152 FILLER_0_11_249
*153 FILLER_0_11_261
*154 FILLER_0_11_27
*155 FILLER_0_11_273
*156 FILLER_0_11_279
*157 FILLER_0_11_281
*158 FILLER_0_11_293
*159 FILLER_0_11_3
*160 FILLER_0_11_305
*161 FILLER_0_11_317
*162 FILLER_0_11_329
*163 FILLER_0_11_335
*164 FILLER_0_11_337
*165 FILLER_0_11_349
*166 FILLER_0_11_39
*167 FILLER_0_11_51
*168 FILLER_0_11_55
*169 FILLER_0_11_57
*170 FILLER_0_11_69
*171 FILLER_0_11_81
*172 FILLER_0_11_93
*173 FILLER_0_12_109
*174 FILLER_0_12_121
*175 FILLER_0_12_133
*176 FILLER_0_12_139
*177 FILLER_0_12_141
*178 FILLER_0_12_15
*179 FILLER_0_12_153
*180 FILLER_0_12_165
*181 FILLER_0_12_177
*182 FILLER_0_12_189
*183 FILLER_0_12_195
*184 FILLER_0_12_197
*185 FILLER_0_12_209
*186 FILLER_0_12_221
*187 FILLER_0_12_233
*188 FILLER_0_12_245
*189 FILLER_0_12_251
*190 FILLER_0_12_253
*191 FILLER_0_12_265
*192 FILLER_0_12_27
*193 FILLER_0_12_277
*194 FILLER_0_12_289
*195 FILLER_0_12_29
*196 FILLER_0_12_3
*197 FILLER_0_12_301
*198 FILLER_0_12_307
*199 FILLER_0_12_309
*200 FILLER_0_12_321
*201 FILLER_0_12_333
*202 FILLER_0_12_345
*203 FILLER_0_12_41
*204 FILLER_0_12_53
*205 FILLER_0_12_65
*206 FILLER_0_12_77
*207 FILLER_0_12_83
*208 FILLER_0_12_85
*209 FILLER_0_12_97
*210 FILLER_0_13_105
*211 FILLER_0_13_111
*212 FILLER_0_13_113
*213 FILLER_0_13_125
*214 FILLER_0_13_137
*215 FILLER_0_13_149
*216 FILLER_0_13_15
*217 FILLER_0_13_161
*218 FILLER_0_13_167
*219 FILLER_0_13_169
*220 FILLER_0_13_181
*221 FILLER_0_13_193
*222 FILLER_0_13_205
*223 FILLER_0_13_217
*224 FILLER_0_13_223
*225 FILLER_0_13_225
*226 FILLER_0_13_237
*227 FILLER_0_13_249
*228 FILLER_0_13_261
*229 FILLER_0_13_27
*230 FILLER_0_13_273
*231 FILLER_0_13_279
*232 FILLER_0_13_281
*233 FILLER_0_13_293
*234 FILLER_0_13_3
*235 FILLER_0_13_305
*236 FILLER_0_13_317
*237 FILLER_0_13_329
*238 FILLER_0_13_335
*239 FILLER_0_13_337
*240 FILLER_0_13_349
*241 FILLER_0_13_39
*242 FILLER_0_13_51
*243 FILLER_0_13_55
*244 FILLER_0_13_57
*245 FILLER_0_13_69
*246 FILLER_0_13_81
*247 FILLER_0_13_93
*248 FILLER_0_14_109
*249 FILLER_0_14_121
*250 FILLER_0_14_133
*251 FILLER_0_14_139
*252 FILLER_0_14_141
*253 FILLER_0_14_15
*254 FILLER_0_14_153
*255 FILLER_0_14_165
*256 FILLER_0_14_177
*257 FILLER_0_14_189
*258 FILLER_0_14_195
*259 FILLER_0_14_197
*260 FILLER_0_14_209
*261 FILLER_0_14_221
*262 FILLER_0_14_233
*263 FILLER_0_14_245
*264 FILLER_0_14_251
*265 FILLER_0_14_253
*266 FILLER_0_14_265
*267 FILLER_0_14_27
*268 FILLER_0_14_277
*269 FILLER_0_14_289
*270 FILLER_0_14_29
*271 FILLER_0_14_3
*272 FILLER_0_14_301
*273 FILLER_0_14_307
*274 FILLER_0_14_309
*275 FILLER_0_14_321
*276 FILLER_0_14_333
*277 FILLER_0_14_345
*278 FILLER_0_14_41
*279 FILLER_0_14_53
*280 FILLER_0_14_65
*281 FILLER_0_14_77
*282 FILLER_0_14_83
*283 FILLER_0_14_85
*284 FILLER_0_14_97
*285 FILLER_0_15_105
*286 FILLER_0_15_111
*287 FILLER_0_15_113
*288 FILLER_0_15_125
*289 FILLER_0_15_137
*290 FILLER_0_15_149
*291 FILLER_0_15_15
*292 FILLER_0_15_161
*293 FILLER_0_15_167
*294 FILLER_0_15_169
*295 FILLER_0_15_181
*296 FILLER_0_15_193
*297 FILLER_0_15_205
*298 FILLER_0_15_217
*299 FILLER_0_15_223
*300 FILLER_0_15_225
*301 FILLER_0_15_237
*302 FILLER_0_15_249
*303 FILLER_0_15_261
*304 FILLER_0_15_27
*305 FILLER_0_15_273
*306 FILLER_0_15_279
*307 FILLER_0_15_281
*308 FILLER_0_15_293
*309 FILLER_0_15_3
*310 FILLER_0_15_305
*311 FILLER_0_15_317
*312 FILLER_0_15_329
*313 FILLER_0_15_335
*314 FILLER_0_15_337
*315 FILLER_0_15_349
*316 FILLER_0_15_39
*317 FILLER_0_15_51
*318 FILLER_0_15_55
*319 FILLER_0_15_57
*320 FILLER_0_15_69
*321 FILLER_0_15_81
*322 FILLER_0_15_93
*323 FILLER_0_16_109
*324 FILLER_0_16_121
*325 FILLER_0_16_133
*326 FILLER_0_16_139
*327 FILLER_0_16_141
*328 FILLER_0_16_15
*329 FILLER_0_16_153
*330 FILLER_0_16_165
*331 FILLER_0_16_177
*332 FILLER_0_16_189
*333 FILLER_0_16_195
*334 FILLER_0_16_197
*335 FILLER_0_16_209
*336 FILLER_0_16_221
*337 FILLER_0_16_233
*338 FILLER_0_16_245
*339 FILLER_0_16_251
*340 FILLER_0_16_253
*341 FILLER_0_16_265
*342 FILLER_0_16_27
*343 FILLER_0_16_277
*344 FILLER_0_16_289
*345 FILLER_0_16_29
*346 FILLER_0_16_3
*347 FILLER_0_16_301
*348 FILLER_0_16_307
*349 FILLER_0_16_309
*350 FILLER_0_16_321
*351 FILLER_0_16_333
*352 FILLER_0_16_345
*353 FILLER_0_16_41
*354 FILLER_0_16_53
*355 FILLER_0_16_65
*356 FILLER_0_16_77
*357 FILLER_0_16_83
*358 FILLER_0_16_85
*359 FILLER_0_16_97
*360 FILLER_0_17_105
*361 FILLER_0_17_111
*362 FILLER_0_17_113
*363 FILLER_0_17_125
*364 FILLER_0_17_137
*365 FILLER_0_17_149
*366 FILLER_0_17_15
*367 FILLER_0_17_161
*368 FILLER_0_17_167
*369 FILLER_0_17_169
*370 FILLER_0_17_181
*371 FILLER_0_17_193
*372 FILLER_0_17_205
*373 FILLER_0_17_217
*374 FILLER_0_17_223
*375 FILLER_0_17_225
*376 FILLER_0_17_237
*377 FILLER_0_17_249
*378 FILLER_0_17_261
*379 FILLER_0_17_27
*380 FILLER_0_17_273
*381 FILLER_0_17_279
*382 FILLER_0_17_281
*383 FILLER_0_17_293
*384 FILLER_0_17_3
*385 FILLER_0_17_305
*386 FILLER_0_17_317
*387 FILLER_0_17_329
*388 FILLER_0_17_335
*389 FILLER_0_17_337
*390 FILLER_0_17_349
*391 FILLER_0_17_39
*392 FILLER_0_17_51
*393 FILLER_0_17_55
*394 FILLER_0_17_57
*395 FILLER_0_17_69
*396 FILLER_0_17_81
*397 FILLER_0_17_93
*398 FILLER_0_18_109
*399 FILLER_0_18_121
*400 FILLER_0_18_133
*401 FILLER_0_18_139
*402 FILLER_0_18_141
*403 FILLER_0_18_15
*404 FILLER_0_18_153
*405 FILLER_0_18_165
*406 FILLER_0_18_177
*407 FILLER_0_18_189
*408 FILLER_0_18_195
*409 FILLER_0_18_197
*410 FILLER_0_18_209
*411 FILLER_0_18_221
*412 FILLER_0_18_233
*413 FILLER_0_18_245
*414 FILLER_0_18_251
*415 FILLER_0_18_253
*416 FILLER_0_18_265
*417 FILLER_0_18_27
*418 FILLER_0_18_277
*419 FILLER_0_18_289
*420 FILLER_0_18_29
*421 FILLER_0_18_3
*422 FILLER_0_18_301
*423 FILLER_0_18_307
*424 FILLER_0_18_309
*425 FILLER_0_18_321
*426 FILLER_0_18_333
*427 FILLER_0_18_345
*428 FILLER_0_18_41
*429 FILLER_0_18_53
*430 FILLER_0_18_65
*431 FILLER_0_18_77
*432 FILLER_0_18_83
*433 FILLER_0_18_85
*434 FILLER_0_18_97
*435 FILLER_0_19_105
*436 FILLER_0_19_111
*437 FILLER_0_19_113
*438 FILLER_0_19_125
*439 FILLER_0_19_137
*440 FILLER_0_19_149
*441 FILLER_0_19_15
*442 FILLER_0_19_161
*443 FILLER_0_19_167
*444 FILLER_0_19_169
*445 FILLER_0_19_181
*446 FILLER_0_19_193
*447 FILLER_0_19_205
*448 FILLER_0_19_217
*449 FILLER_0_19_223
*450 FILLER_0_19_225
*451 FILLER_0_19_237
*452 FILLER_0_19_249
*453 FILLER_0_19_261
*454 FILLER_0_19_27
*455 FILLER_0_19_273
*456 FILLER_0_19_279
*457 FILLER_0_19_281
*458 FILLER_0_19_293
*459 FILLER_0_19_3
*460 FILLER_0_19_305
*461 FILLER_0_19_317
*462 FILLER_0_19_329
*463 FILLER_0_19_335
*464 FILLER_0_19_337
*465 FILLER_0_19_349
*466 FILLER_0_19_39
*467 FILLER_0_19_51
*468 FILLER_0_19_55
*469 FILLER_0_19_57
*470 FILLER_0_19_69
*471 FILLER_0_19_81
*472 FILLER_0_19_93
*473 FILLER_0_1_105
*474 FILLER_0_1_111
*475 FILLER_0_1_113
*476 FILLER_0_1_125
*477 FILLER_0_1_137
*478 FILLER_0_1_149
*479 FILLER_0_1_15
*480 FILLER_0_1_161
*481 FILLER_0_1_167
*482 FILLER_0_1_169
*483 FILLER_0_1_181
*484 FILLER_0_1_193
*485 FILLER_0_1_205
*486 FILLER_0_1_217
*487 FILLER_0_1_223
*488 FILLER_0_1_225
*489 FILLER_0_1_237
*490 FILLER_0_1_249
*491 FILLER_0_1_261
*492 FILLER_0_1_27
*493 FILLER_0_1_273
*494 FILLER_0_1_279
*495 FILLER_0_1_281
*496 FILLER_0_1_293
*497 FILLER_0_1_3
*498 FILLER_0_1_305
*499 FILLER_0_1_317
*500 FILLER_0_1_329
*501 FILLER_0_1_335
*502 FILLER_0_1_337
*503 FILLER_0_1_349
*504 FILLER_0_1_39
*505 FILLER_0_1_51
*506 FILLER_0_1_55
*507 FILLER_0_1_57
*508 FILLER_0_1_69
*509 FILLER_0_1_81
*510 FILLER_0_1_93
*511 FILLER_0_20_109
*512 FILLER_0_20_121
*513 FILLER_0_20_133
*514 FILLER_0_20_139
*515 FILLER_0_20_141
*516 FILLER_0_20_15
*517 FILLER_0_20_153
*518 FILLER_0_20_165
*519 FILLER_0_20_177
*520 FILLER_0_20_189
*521 FILLER_0_20_195
*522 FILLER_0_20_197
*523 FILLER_0_20_209
*524 FILLER_0_20_221
*525 FILLER_0_20_233
*526 FILLER_0_20_245
*527 FILLER_0_20_251
*528 FILLER_0_20_253
*529 FILLER_0_20_265
*530 FILLER_0_20_27
*531 FILLER_0_20_277
*532 FILLER_0_20_289
*533 FILLER_0_20_29
*534 FILLER_0_20_3
*535 FILLER_0_20_301
*536 FILLER_0_20_307
*537 FILLER_0_20_309
*538 FILLER_0_20_321
*539 FILLER_0_20_333
*540 FILLER_0_20_345
*541 FILLER_0_20_41
*542 FILLER_0_20_53
*543 FILLER_0_20_65
*544 FILLER_0_20_77
*545 FILLER_0_20_83
*546 FILLER_0_20_85
*547 FILLER_0_20_97
*548 FILLER_0_21_105
*549 FILLER_0_21_111
*550 FILLER_0_21_113
*551 FILLER_0_21_125
*552 FILLER_0_21_137
*553 FILLER_0_21_149
*554 FILLER_0_21_15
*555 FILLER_0_21_161
*556 FILLER_0_21_167
*557 FILLER_0_21_169
*558 FILLER_0_21_181
*559 FILLER_0_21_193
*560 FILLER_0_21_205
*561 FILLER_0_21_217
*562 FILLER_0_21_223
*563 FILLER_0_21_225
*564 FILLER_0_21_237
*565 FILLER_0_21_249
*566 FILLER_0_21_261
*567 FILLER_0_21_27
*568 FILLER_0_21_273
*569 FILLER_0_21_279
*570 FILLER_0_21_281
*571 FILLER_0_21_293
*572 FILLER_0_21_3
*573 FILLER_0_21_305
*574 FILLER_0_21_317
*575 FILLER_0_21_329
*576 FILLER_0_21_335
*577 FILLER_0_21_337
*578 FILLER_0_21_349
*579 FILLER_0_21_39
*580 FILLER_0_21_51
*581 FILLER_0_21_55
*582 FILLER_0_21_57
*583 FILLER_0_21_69
*584 FILLER_0_21_81
*585 FILLER_0_21_93
*586 FILLER_0_22_109
*587 FILLER_0_22_121
*588 FILLER_0_22_133
*589 FILLER_0_22_139
*590 FILLER_0_22_141
*591 FILLER_0_22_15
*592 FILLER_0_22_153
*593 FILLER_0_22_165
*594 FILLER_0_22_177
*595 FILLER_0_22_189
*596 FILLER_0_22_195
*597 FILLER_0_22_197
*598 FILLER_0_22_209
*599 FILLER_0_22_221
*600 FILLER_0_22_233
*601 FILLER_0_22_245
*602 FILLER_0_22_251
*603 FILLER_0_22_253
*604 FILLER_0_22_265
*605 FILLER_0_22_27
*606 FILLER_0_22_277
*607 FILLER_0_22_289
*608 FILLER_0_22_29
*609 FILLER_0_22_3
*610 FILLER_0_22_301
*611 FILLER_0_22_307
*612 FILLER_0_22_309
*613 FILLER_0_22_321
*614 FILLER_0_22_333
*615 FILLER_0_22_345
*616 FILLER_0_22_41
*617 FILLER_0_22_53
*618 FILLER_0_22_65
*619 FILLER_0_22_77
*620 FILLER_0_22_83
*621 FILLER_0_22_85
*622 FILLER_0_22_97
*623 FILLER_0_23_105
*624 FILLER_0_23_111
*625 FILLER_0_23_113
*626 FILLER_0_23_125
*627 FILLER_0_23_137
*628 FILLER_0_23_149
*629 FILLER_0_23_15
*630 FILLER_0_23_161
*631 FILLER_0_23_167
*632 FILLER_0_23_169
*633 FILLER_0_23_181
*634 FILLER_0_23_193
*635 FILLER_0_23_205
*636 FILLER_0_23_217
*637 FILLER_0_23_223
*638 FILLER_0_23_225
*639 FILLER_0_23_237
*640 FILLER_0_23_249
*641 FILLER_0_23_261
*642 FILLER_0_23_27
*643 FILLER_0_23_273
*644 FILLER_0_23_279
*645 FILLER_0_23_281
*646 FILLER_0_23_293
*647 FILLER_0_23_3
*648 FILLER_0_23_305
*649 FILLER_0_23_317
*650 FILLER_0_23_329
*651 FILLER_0_23_335
*652 FILLER_0_23_337
*653 FILLER_0_23_349
*654 FILLER_0_23_39
*655 FILLER_0_23_51
*656 FILLER_0_23_55
*657 FILLER_0_23_57
*658 FILLER_0_23_69
*659 FILLER_0_23_81
*660 FILLER_0_23_93
*661 FILLER_0_24_109
*662 FILLER_0_24_121
*663 FILLER_0_24_133
*664 FILLER_0_24_139
*665 FILLER_0_24_141
*666 FILLER_0_24_15
*667 FILLER_0_24_153
*668 FILLER_0_24_165
*669 FILLER_0_24_177
*670 FILLER_0_24_189
*671 FILLER_0_24_195
*672 FILLER_0_24_197
*673 FILLER_0_24_209
*674 FILLER_0_24_221
*675 FILLER_0_24_233
*676 FILLER_0_24_245
*677 FILLER_0_24_251
*678 FILLER_0_24_253
*679 FILLER_0_24_265
*680 FILLER_0_24_27
*681 FILLER_0_24_277
*682 FILLER_0_24_289
*683 FILLER_0_24_29
*684 FILLER_0_24_3
*685 FILLER_0_24_301
*686 FILLER_0_24_307
*687 FILLER_0_24_309
*688 FILLER_0_24_321
*689 FILLER_0_24_333
*690 FILLER_0_24_345
*691 FILLER_0_24_41
*692 FILLER_0_24_53
*693 FILLER_0_24_65
*694 FILLER_0_24_77
*695 FILLER_0_24_83
*696 FILLER_0_24_85
*697 FILLER_0_24_97
*698 FILLER_0_25_105
*699 FILLER_0_25_111
*700 FILLER_0_25_113
*701 FILLER_0_25_125
*702 FILLER_0_25_137
*703 FILLER_0_25_149
*704 FILLER_0_25_15
*705 FILLER_0_25_161
*706 FILLER_0_25_167
*707 FILLER_0_25_169
*708 FILLER_0_25_181
*709 FILLER_0_25_193
*710 FILLER_0_25_205
*711 FILLER_0_25_217
*712 FILLER_0_25_223
*713 FILLER_0_25_225
*714 FILLER_0_25_237
*715 FILLER_0_25_249
*716 FILLER_0_25_261
*717 FILLER_0_25_27
*718 FILLER_0_25_273
*719 FILLER_0_25_279
*720 FILLER_0_25_281
*721 FILLER_0_25_293
*722 FILLER_0_25_3
*723 FILLER_0_25_305
*724 FILLER_0_25_317
*725 FILLER_0_25_329
*726 FILLER_0_25_335
*727 FILLER_0_25_337
*728 FILLER_0_25_349
*729 FILLER_0_25_39
*730 FILLER_0_25_51
*731 FILLER_0_25_55
*732 FILLER_0_25_57
*733 FILLER_0_25_69
*734 FILLER_0_25_81
*735 FILLER_0_25_93
*736 FILLER_0_26_109
*737 FILLER_0_26_121
*738 FILLER_0_26_133
*739 FILLER_0_26_139
*740 FILLER_0_26_141
*741 FILLER_0_26_15
*742 FILLER_0_26_153
*743 FILLER_0_26_165
*744 FILLER_0_26_177
*745 FILLER_0_26_189
*746 FILLER_0_26_195
*747 FILLER_0_26_197
*748 FILLER_0_26_209
*749 FILLER_0_26_221
*750 FILLER_0_26_233
*751 FILLER_0_26_245
*752 FILLER_0_26_251
*753 FILLER_0_26_253
*754 FILLER_0_26_265
*755 FILLER_0_26_27
*756 FILLER_0_26_277
*757 FILLER_0_26_289
*758 FILLER_0_26_29
*759 FILLER_0_26_3
*760 FILLER_0_26_301
*761 FILLER_0_26_307
*762 FILLER_0_26_309
*763 FILLER_0_26_321
*764 FILLER_0_26_333
*765 FILLER_0_26_345
*766 FILLER_0_26_41
*767 FILLER_0_26_53
*768 FILLER_0_26_65
*769 FILLER_0_26_77
*770 FILLER_0_26_83
*771 FILLER_0_26_85
*772 FILLER_0_26_97
*773 FILLER_0_27_105
*774 FILLER_0_27_111
*775 FILLER_0_27_113
*776 FILLER_0_27_125
*777 FILLER_0_27_137
*778 FILLER_0_27_149
*779 FILLER_0_27_15
*780 FILLER_0_27_161
*781 FILLER_0_27_167
*782 FILLER_0_27_169
*783 FILLER_0_27_181
*784 FILLER_0_27_193
*785 FILLER_0_27_205
*786 FILLER_0_27_217
*787 FILLER_0_27_223
*788 FILLER_0_27_225
*789 FILLER_0_27_237
*790 FILLER_0_27_249
*791 FILLER_0_27_261
*792 FILLER_0_27_27
*793 FILLER_0_27_273
*794 FILLER_0_27_279
*795 FILLER_0_27_281
*796 FILLER_0_27_293
*797 FILLER_0_27_3
*798 FILLER_0_27_305
*799 FILLER_0_27_317
*800 FILLER_0_27_329
*801 FILLER_0_27_335
*802 FILLER_0_27_337
*803 FILLER_0_27_349
*804 FILLER_0_27_39
*805 FILLER_0_27_51
*806 FILLER_0_27_55
*807 FILLER_0_27_57
*808 FILLER_0_27_69
*809 FILLER_0_27_81
*810 FILLER_0_27_93
*811 FILLER_0_28_109
*812 FILLER_0_28_121
*813 FILLER_0_28_133
*814 FILLER_0_28_139
*815 FILLER_0_28_141
*816 FILLER_0_28_15
*817 FILLER_0_28_153
*818 FILLER_0_28_165
*819 FILLER_0_28_177
*820 FILLER_0_28_189
*821 FILLER_0_28_195
*822 FILLER_0_28_197
*823 FILLER_0_28_209
*824 FILLER_0_28_221
*825 FILLER_0_28_233
*826 FILLER_0_28_245
*827 FILLER_0_28_251
*828 FILLER_0_28_253
*829 FILLER_0_28_265
*830 FILLER_0_28_27
*831 FILLER_0_28_277
*832 FILLER_0_28_289
*833 FILLER_0_28_29
*834 FILLER_0_28_3
*835 FILLER_0_28_301
*836 FILLER_0_28_307
*837 FILLER_0_28_309
*838 FILLER_0_28_321
*839 FILLER_0_28_333
*840 FILLER_0_28_345
*841 FILLER_0_28_41
*842 FILLER_0_28_53
*843 FILLER_0_28_65
*844 FILLER_0_28_77
*845 FILLER_0_28_83
*846 FILLER_0_28_85
*847 FILLER_0_28_97
*848 FILLER_0_29_105
*849 FILLER_0_29_111
*850 FILLER_0_29_113
*851 FILLER_0_29_125
*852 FILLER_0_29_137
*853 FILLER_0_29_149
*854 FILLER_0_29_15
*855 FILLER_0_29_161
*856 FILLER_0_29_167
*857 FILLER_0_29_169
*858 FILLER_0_29_181
*859 FILLER_0_29_193
*860 FILLER_0_29_205
*861 FILLER_0_29_217
*862 FILLER_0_29_223
*863 FILLER_0_29_225
*864 FILLER_0_29_237
*865 FILLER_0_29_249
*866 FILLER_0_29_261
*867 FILLER_0_29_27
*868 FILLER_0_29_273
*869 FILLER_0_29_279
*870 FILLER_0_29_281
*871 FILLER_0_29_293
*872 FILLER_0_29_3
*873 FILLER_0_29_305
*874 FILLER_0_29_317
*875 FILLER_0_29_329
*876 FILLER_0_29_335
*877 FILLER_0_29_337
*878 FILLER_0_29_349
*879 FILLER_0_29_39
*880 FILLER_0_29_51
*881 FILLER_0_29_55
*882 FILLER_0_29_57
*883 FILLER_0_29_69
*884 FILLER_0_29_81
*885 FILLER_0_29_93
*886 FILLER_0_2_109
*887 FILLER_0_2_121
*888 FILLER_0_2_133
*889 FILLER_0_2_139
*890 FILLER_0_2_141
*891 FILLER_0_2_15
*892 FILLER_0_2_153
*893 FILLER_0_2_165
*894 FILLER_0_2_177
*895 FILLER_0_2_189
*896 FILLER_0_2_195
*897 FILLER_0_2_197
*898 FILLER_0_2_209
*899 FILLER_0_2_221
*900 FILLER_0_2_233
*901 FILLER_0_2_245
*902 FILLER_0_2_251
*903 FILLER_0_2_253
*904 FILLER_0_2_265
*905 FILLER_0_2_27
*906 FILLER_0_2_277
*907 FILLER_0_2_289
*908 FILLER_0_2_29
*909 FILLER_0_2_3
*910 FILLER_0_2_301
*911 FILLER_0_2_307
*912 FILLER_0_2_309
*913 FILLER_0_2_321
*914 FILLER_0_2_333
*915 FILLER_0_2_345
*916 FILLER_0_2_41
*917 FILLER_0_2_53
*918 FILLER_0_2_65
*919 FILLER_0_2_77
*920 FILLER_0_2_83
*921 FILLER_0_2_85
*922 FILLER_0_2_97
*923 FILLER_0_30_109
*924 FILLER_0_30_121
*925 FILLER_0_30_133
*926 FILLER_0_30_139
*927 FILLER_0_30_141
*928 FILLER_0_30_15
*929 FILLER_0_30_153
*930 FILLER_0_30_165
*931 FILLER_0_30_177
*932 FILLER_0_30_189
*933 FILLER_0_30_195
*934 FILLER_0_30_197
*935 FILLER_0_30_209
*936 FILLER_0_30_221
*937 FILLER_0_30_233
*938 FILLER_0_30_245
*939 FILLER_0_30_251
*940 FILLER_0_30_253
*941 FILLER_0_30_265
*942 FILLER_0_30_27
*943 FILLER_0_30_277
*944 FILLER_0_30_289
*945 FILLER_0_30_29
*946 FILLER_0_30_3
*947 FILLER_0_30_301
*948 FILLER_0_30_307
*949 FILLER_0_30_309
*950 FILLER_0_30_321
*951 FILLER_0_30_333
*952 FILLER_0_30_345
*953 FILLER_0_30_41
*954 FILLER_0_30_53
*955 FILLER_0_30_65
*956 FILLER_0_30_77
*957 FILLER_0_30_83
*958 FILLER_0_30_85
*959 FILLER_0_30_97
*960 FILLER_0_31_105
*961 FILLER_0_31_111
*962 FILLER_0_31_113
*963 FILLER_0_31_125
*964 FILLER_0_31_137
*965 FILLER_0_31_149
*966 FILLER_0_31_15
*967 FILLER_0_31_161
*968 FILLER_0_31_167
*969 FILLER_0_31_169
*970 FILLER_0_31_181
*971 FILLER_0_31_193
*972 FILLER_0_31_205
*973 FILLER_0_31_217
*974 FILLER_0_31_223
*975 FILLER_0_31_225
*976 FILLER_0_31_237
*977 FILLER_0_31_249
*978 FILLER_0_31_261
*979 FILLER_0_31_27
*980 FILLER_0_31_273
*981 FILLER_0_31_279
*982 FILLER_0_31_281
*983 FILLER_0_31_293
*984 FILLER_0_31_3
*985 FILLER_0_31_305
*986 FILLER_0_31_317
*987 FILLER_0_31_329
*988 FILLER_0_31_335
*989 FILLER_0_31_337
*990 FILLER_0_31_349
*991 FILLER_0_31_39
*992 FILLER_0_31_51
*993 FILLER_0_31_55
*994 FILLER_0_31_57
*995 FILLER_0_31_69
*996 FILLER_0_31_81
*997 FILLER_0_31_93
*998 FILLER_0_32_109
*999 FILLER_0_32_121
*1000 FILLER_0_32_133
*1001 FILLER_0_32_139
*1002 FILLER_0_32_141
*1003 FILLER_0_32_15
*1004 FILLER_0_32_153
*1005 FILLER_0_32_165
*1006 FILLER_0_32_177
*1007 FILLER_0_32_189
*1008 FILLER_0_32_195
*1009 FILLER_0_32_197
*1010 FILLER_0_32_209
*1011 FILLER_0_32_221
*1012 FILLER_0_32_233
*1013 FILLER_0_32_245
*1014 FILLER_0_32_251
*1015 FILLER_0_32_253
*1016 FILLER_0_32_265
*1017 FILLER_0_32_27
*1018 FILLER_0_32_277
*1019 FILLER_0_32_289
*1020 FILLER_0_32_29
*1021 FILLER_0_32_3
*1022 FILLER_0_32_301
*1023 FILLER_0_32_307
*1024 FILLER_0_32_309
*1025 FILLER_0_32_321
*1026 FILLER_0_32_333
*1027 FILLER_0_32_345
*1028 FILLER_0_32_41
*1029 FILLER_0_32_53
*1030 FILLER_0_32_65
*1031 FILLER_0_32_77
*1032 FILLER_0_32_83
*1033 FILLER_0_32_85
*1034 FILLER_0_32_97
*1035 FILLER_0_33_105
*1036 FILLER_0_33_111
*1037 FILLER_0_33_113
*1038 FILLER_0_33_125
*1039 FILLER_0_33_137
*1040 FILLER_0_33_149
*1041 FILLER_0_33_15
*1042 FILLER_0_33_161
*1043 FILLER_0_33_167
*1044 FILLER_0_33_169
*1045 FILLER_0_33_181
*1046 FILLER_0_33_193
*1047 FILLER_0_33_205
*1048 FILLER_0_33_217
*1049 FILLER_0_33_223
*1050 FILLER_0_33_225
*1051 FILLER_0_33_237
*1052 FILLER_0_33_249
*1053 FILLER_0_33_261
*1054 FILLER_0_33_27
*1055 FILLER_0_33_273
*1056 FILLER_0_33_279
*1057 FILLER_0_33_281
*1058 FILLER_0_33_293
*1059 FILLER_0_33_3
*1060 FILLER_0_33_305
*1061 FILLER_0_33_317
*1062 FILLER_0_33_329
*1063 FILLER_0_33_335
*1064 FILLER_0_33_337
*1065 FILLER_0_33_349
*1066 FILLER_0_33_39
*1067 FILLER_0_33_51
*1068 FILLER_0_33_55
*1069 FILLER_0_33_57
*1070 FILLER_0_33_69
*1071 FILLER_0_33_81
*1072 FILLER_0_33_93
*1073 FILLER_0_34_109
*1074 FILLER_0_34_121
*1075 FILLER_0_34_133
*1076 FILLER_0_34_139
*1077 FILLER_0_34_141
*1078 FILLER_0_34_15
*1079 FILLER_0_34_153
*1080 FILLER_0_34_165
*1081 FILLER_0_34_177
*1082 FILLER_0_34_189
*1083 FILLER_0_34_195
*1084 FILLER_0_34_197
*1085 FILLER_0_34_209
*1086 FILLER_0_34_221
*1087 FILLER_0_34_233
*1088 FILLER_0_34_245
*1089 FILLER_0_34_251
*1090 FILLER_0_34_253
*1091 FILLER_0_34_265
*1092 FILLER_0_34_27
*1093 FILLER_0_34_277
*1094 FILLER_0_34_289
*1095 FILLER_0_34_29
*1096 FILLER_0_34_3
*1097 FILLER_0_34_301
*1098 FILLER_0_34_307
*1099 FILLER_0_34_309
*1100 FILLER_0_34_321
*1101 FILLER_0_34_333
*1102 FILLER_0_34_345
*1103 FILLER_0_34_41
*1104 FILLER_0_34_53
*1105 FILLER_0_34_65
*1106 FILLER_0_34_77
*1107 FILLER_0_34_83
*1108 FILLER_0_34_85
*1109 FILLER_0_34_97
*1110 FILLER_0_35_105
*1111 FILLER_0_35_111
*1112 FILLER_0_35_113
*1113 FILLER_0_35_125
*1114 FILLER_0_35_137
*1115 FILLER_0_35_149
*1116 FILLER_0_35_15
*1117 FILLER_0_35_161
*1118 FILLER_0_35_167
*1119 FILLER_0_35_169
*1120 FILLER_0_35_181
*1121 FILLER_0_35_193
*1122 FILLER_0_35_205
*1123 FILLER_0_35_217
*1124 FILLER_0_35_223
*1125 FILLER_0_35_225
*1126 FILLER_0_35_237
*1127 FILLER_0_35_249
*1128 FILLER_0_35_261
*1129 FILLER_0_35_27
*1130 FILLER_0_35_273
*1131 FILLER_0_35_279
*1132 FILLER_0_35_281
*1133 FILLER_0_35_293
*1134 FILLER_0_35_3
*1135 FILLER_0_35_305
*1136 FILLER_0_35_317
*1137 FILLER_0_35_329
*1138 FILLER_0_35_335
*1139 FILLER_0_35_337
*1140 FILLER_0_35_349
*1141 FILLER_0_35_39
*1142 FILLER_0_35_51
*1143 FILLER_0_35_55
*1144 FILLER_0_35_57
*1145 FILLER_0_35_69
*1146 FILLER_0_35_81
*1147 FILLER_0_35_93
*1148 FILLER_0_36_109
*1149 FILLER_0_36_121
*1150 FILLER_0_36_133
*1151 FILLER_0_36_139
*1152 FILLER_0_36_141
*1153 FILLER_0_36_15
*1154 FILLER_0_36_153
*1155 FILLER_0_36_165
*1156 FILLER_0_36_177
*1157 FILLER_0_36_189
*1158 FILLER_0_36_195
*1159 FILLER_0_36_197
*1160 FILLER_0_36_209
*1161 FILLER_0_36_221
*1162 FILLER_0_36_233
*1163 FILLER_0_36_245
*1164 FILLER_0_36_251
*1165 FILLER_0_36_253
*1166 FILLER_0_36_265
*1167 FILLER_0_36_27
*1168 FILLER_0_36_277
*1169 FILLER_0_36_289
*1170 FILLER_0_36_29
*1171 FILLER_0_36_3
*1172 FILLER_0_36_301
*1173 FILLER_0_36_307
*1174 FILLER_0_36_309
*1175 FILLER_0_36_321
*1176 FILLER_0_36_333
*1177 FILLER_0_36_345
*1178 FILLER_0_36_41
*1179 FILLER_0_36_53
*1180 FILLER_0_36_65
*1181 FILLER_0_36_77
*1182 FILLER_0_36_83
*1183 FILLER_0_36_85
*1184 FILLER_0_36_97
*1185 FILLER_0_37_105
*1186 FILLER_0_37_111
*1187 FILLER_0_37_113
*1188 FILLER_0_37_125
*1189 FILLER_0_37_137
*1190 FILLER_0_37_149
*1191 FILLER_0_37_15
*1192 FILLER_0_37_161
*1193 FILLER_0_37_167
*1194 FILLER_0_37_169
*1195 FILLER_0_37_181
*1196 FILLER_0_37_193
*1197 FILLER_0_37_205
*1198 FILLER_0_37_217
*1199 FILLER_0_37_223
*1200 FILLER_0_37_225
*1201 FILLER_0_37_237
*1202 FILLER_0_37_249
*1203 FILLER_0_37_261
*1204 FILLER_0_37_266
*1205 FILLER_0_37_27
*1206 FILLER_0_37_276
*1207 FILLER_0_37_284
*1208 FILLER_0_37_296
*1209 FILLER_0_37_3
*1210 FILLER_0_37_308
*1211 FILLER_0_37_320
*1212 FILLER_0_37_332
*1213 FILLER_0_37_337
*1214 FILLER_0_37_349
*1215 FILLER_0_37_39
*1216 FILLER_0_37_51
*1217 FILLER_0_37_55
*1218 FILLER_0_37_57
*1219 FILLER_0_37_69
*1220 FILLER_0_37_81
*1221 FILLER_0_37_93
*1222 FILLER_0_38_104
*1223 FILLER_0_38_110
*1224 FILLER_0_38_116
*1225 FILLER_0_38_122
*1226 FILLER_0_38_128
*1227 FILLER_0_38_134
*1228 FILLER_0_38_141
*1229 FILLER_0_38_146
*1230 FILLER_0_38_15
*1231 FILLER_0_38_152
*1232 FILLER_0_38_158
*1233 FILLER_0_38_164
*1234 FILLER_0_38_172
*1235 FILLER_0_38_176
*1236 FILLER_0_38_182
*1237 FILLER_0_38_194
*1238 FILLER_0_38_197
*1239 FILLER_0_38_209
*1240 FILLER_0_38_221
*1241 FILLER_0_38_231
*1242 FILLER_0_38_256
*1243 FILLER_0_38_260
*1244 FILLER_0_38_27
*1245 FILLER_0_38_279
*1246 FILLER_0_38_284
*1247 FILLER_0_38_29
*1248 FILLER_0_38_3
*1249 FILLER_0_38_302
*1250 FILLER_0_38_309
*1251 FILLER_0_38_321
*1252 FILLER_0_38_333
*1253 FILLER_0_38_337
*1254 FILLER_0_38_349
*1255 FILLER_0_38_41
*1256 FILLER_0_38_53
*1257 FILLER_0_38_57
*1258 FILLER_0_38_68
*1259 FILLER_0_38_74
*1260 FILLER_0_38_80
*1261 FILLER_0_38_88
*1262 FILLER_0_38_92
*1263 FILLER_0_38_98
*1264 FILLER_0_3_105
*1265 FILLER_0_3_111
*1266 FILLER_0_3_113
*1267 FILLER_0_3_125
*1268 FILLER_0_3_137
*1269 FILLER_0_3_149
*1270 FILLER_0_3_15
*1271 FILLER_0_3_161
*1272 FILLER_0_3_167
*1273 FILLER_0_3_169
*1274 FILLER_0_3_181
*1275 FILLER_0_3_193
*1276 FILLER_0_3_205
*1277 FILLER_0_3_217
*1278 FILLER_0_3_223
*1279 FILLER_0_3_225
*1280 FILLER_0_3_237
*1281 FILLER_0_3_249
*1282 FILLER_0_3_261
*1283 FILLER_0_3_27
*1284 FILLER_0_3_273
*1285 FILLER_0_3_279
*1286 FILLER_0_3_281
*1287 FILLER_0_3_293
*1288 FILLER_0_3_3
*1289 FILLER_0_3_305
*1290 FILLER_0_3_317
*1291 FILLER_0_3_329
*1292 FILLER_0_3_335
*1293 FILLER_0_3_337
*1294 FILLER_0_3_349
*1295 FILLER_0_3_39
*1296 FILLER_0_3_51
*1297 FILLER_0_3_55
*1298 FILLER_0_3_57
*1299 FILLER_0_3_69
*1300 FILLER_0_3_81
*1301 FILLER_0_3_93
*1302 FILLER_0_4_109
*1303 FILLER_0_4_121
*1304 FILLER_0_4_133
*1305 FILLER_0_4_139
*1306 FILLER_0_4_141
*1307 FILLER_0_4_15
*1308 FILLER_0_4_153
*1309 FILLER_0_4_165
*1310 FILLER_0_4_177
*1311 FILLER_0_4_189
*1312 FILLER_0_4_195
*1313 FILLER_0_4_197
*1314 FILLER_0_4_209
*1315 FILLER_0_4_221
*1316 FILLER_0_4_233
*1317 FILLER_0_4_245
*1318 FILLER_0_4_251
*1319 FILLER_0_4_253
*1320 FILLER_0_4_265
*1321 FILLER_0_4_27
*1322 FILLER_0_4_277
*1323 FILLER_0_4_289
*1324 FILLER_0_4_29
*1325 FILLER_0_4_3
*1326 FILLER_0_4_301
*1327 FILLER_0_4_307
*1328 FILLER_0_4_309
*1329 FILLER_0_4_321
*1330 FILLER_0_4_333
*1331 FILLER_0_4_345
*1332 FILLER_0_4_41
*1333 FILLER_0_4_53
*1334 FILLER_0_4_65
*1335 FILLER_0_4_77
*1336 FILLER_0_4_83
*1337 FILLER_0_4_85
*1338 FILLER_0_4_97
*1339 FILLER_0_5_105
*1340 FILLER_0_5_111
*1341 FILLER_0_5_113
*1342 FILLER_0_5_125
*1343 FILLER_0_5_137
*1344 FILLER_0_5_149
*1345 FILLER_0_5_15
*1346 FILLER_0_5_161
*1347 FILLER_0_5_167
*1348 FILLER_0_5_169
*1349 FILLER_0_5_181
*1350 FILLER_0_5_193
*1351 FILLER_0_5_205
*1352 FILLER_0_5_217
*1353 FILLER_0_5_223
*1354 FILLER_0_5_225
*1355 FILLER_0_5_237
*1356 FILLER_0_5_249
*1357 FILLER_0_5_261
*1358 FILLER_0_5_27
*1359 FILLER_0_5_273
*1360 FILLER_0_5_279
*1361 FILLER_0_5_281
*1362 FILLER_0_5_293
*1363 FILLER_0_5_3
*1364 FILLER_0_5_305
*1365 FILLER_0_5_317
*1366 FILLER_0_5_329
*1367 FILLER_0_5_335
*1368 FILLER_0_5_337
*1369 FILLER_0_5_349
*1370 FILLER_0_5_39
*1371 FILLER_0_5_51
*1372 FILLER_0_5_55
*1373 FILLER_0_5_57
*1374 FILLER_0_5_69
*1375 FILLER_0_5_81
*1376 FILLER_0_5_93
*1377 FILLER_0_6_109
*1378 FILLER_0_6_121
*1379 FILLER_0_6_133
*1380 FILLER_0_6_139
*1381 FILLER_0_6_141
*1382 FILLER_0_6_15
*1383 FILLER_0_6_153
*1384 FILLER_0_6_165
*1385 FILLER_0_6_177
*1386 FILLER_0_6_189
*1387 FILLER_0_6_195
*1388 FILLER_0_6_197
*1389 FILLER_0_6_209
*1390 FILLER_0_6_221
*1391 FILLER_0_6_233
*1392 FILLER_0_6_245
*1393 FILLER_0_6_251
*1394 FILLER_0_6_253
*1395 FILLER_0_6_265
*1396 FILLER_0_6_27
*1397 FILLER_0_6_277
*1398 FILLER_0_6_289
*1399 FILLER_0_6_29
*1400 FILLER_0_6_3
*1401 FILLER_0_6_301
*1402 FILLER_0_6_307
*1403 FILLER_0_6_309
*1404 FILLER_0_6_321
*1405 FILLER_0_6_333
*1406 FILLER_0_6_345
*1407 FILLER_0_6_41
*1408 FILLER_0_6_53
*1409 FILLER_0_6_65
*1410 FILLER_0_6_77
*1411 FILLER_0_6_83
*1412 FILLER_0_6_85
*1413 FILLER_0_6_97
*1414 FILLER_0_7_105
*1415 FILLER_0_7_111
*1416 FILLER_0_7_113
*1417 FILLER_0_7_125
*1418 FILLER_0_7_137
*1419 FILLER_0_7_149
*1420 FILLER_0_7_15
*1421 FILLER_0_7_161
*1422 FILLER_0_7_167
*1423 FILLER_0_7_169
*1424 FILLER_0_7_181
*1425 FILLER_0_7_193
*1426 FILLER_0_7_205
*1427 FILLER_0_7_217
*1428 FILLER_0_7_223
*1429 FILLER_0_7_225
*1430 FILLER_0_7_237
*1431 FILLER_0_7_249
*1432 FILLER_0_7_261
*1433 FILLER_0_7_27
*1434 FILLER_0_7_273
*1435 FILLER_0_7_279
*1436 FILLER_0_7_281
*1437 FILLER_0_7_293
*1438 FILLER_0_7_3
*1439 FILLER_0_7_305
*1440 FILLER_0_7_317
*1441 FILLER_0_7_329
*1442 FILLER_0_7_335
*1443 FILLER_0_7_337
*1444 FILLER_0_7_349
*1445 FILLER_0_7_39
*1446 FILLER_0_7_51
*1447 FILLER_0_7_55
*1448 FILLER_0_7_57
*1449 FILLER_0_7_69
*1450 FILLER_0_7_81
*1451 FILLER_0_7_93
*1452 FILLER_0_8_109
*1453 FILLER_0_8_121
*1454 FILLER_0_8_133
*1455 FILLER_0_8_139
*1456 FILLER_0_8_141
*1457 FILLER_0_8_15