*SPEF "ieee 1481-1999"
*DESIGN "tt_um_clkdiv"
*DATE "11:11:11 Fri 11 11, 1111"
*VENDOR "OpenRCX"
*PROGRAM "Parallel Extraction"
*VERSION "1.0"
*DESIGN_FLOW "NAME_SCOPE LOCAL" "PIN_CAP NONE"
*DIVIDER /
*DELIMITER :
*BUS_DELIMITER []
*T_UNIT 1 NS
*C_UNIT 1 PF
*R_UNIT 1 OHM
*L_UNIT 1 HENRY

*NAME_MAP
*3 clk
*4 ena
*5 rst_n
*6 ui_in[0]
*7 ui_in[1]
*8 ui_in[2]
*9 ui_in[3]
*10 ui_in[4]
*11 ui_in[5]
*12 ui_in[6]
*13 ui_in[7]
*14 uio_in[0]
*15 uio_in[1]
*16 uio_in[2]
*17 uio_in[3]
*18 uio_in[4]
*19 uio_in[5]
*20 uio_in[6]
*21 uio_in[7]
*22 net25
*23 net26
*24 net27
*25 net28
*26 net29
*27 net30
*28 net31
*29 net32
*30 net33
*31 net34
*32 net35
*33 net36
*34 net37
*35 net38
*36 net39
*37 net40
*38 uo_out[0]
*39 uo_out[1]
*40 uo_out[2]
*41 uo_out[3]
*42 uo_out[4]
*43 uo_out[5]
*44 uo_out[6]
*45 uo_out[7]
*46 _000_
*47 _001_
*48 _002_
*49 _003_
*50 _004_
*51 _005_
*52 _006_
*53 _007_
*54 _008_
*55 _009_
*56 _010_
*57 _011_
*58 _012_
*59 _013_
*60 _014_
*61 _015_
*62 _016_
*63 _017_
*64 _018_
*65 _019_
*66 _020_
*67 _021_
*68 _022_
*69 _023_
*70 _024_
*71 _025_
*72 _026_
*73 _027_
*74 _028_
*75 _029_
*76 _030_
*77 _031_
*78 _032_
*79 _033_
*80 _034_
*81 _035_
*82 _036_
*83 _037_
*84 _038_
*85 _039_
*86 _040_
*87 _041_
*88 _042_
*89 _043_
*90 _044_
*91 _045_
*92 _046_
*93 _047_
*94 _048_
*95 _049_
*96 _050_
*97 _051_
*98 _052_
*99 _053_
*100 _054_
*101 _055_
*102 _056_
*103 _057_
*104 _058_
*105 _059_
*106 _060_
*107 _061_
*108 _062_
*109 _063_
*110 _064_
*111 _065_
*112 _066_
*113 _067_
*114 _068_
*115 _069_
*116 _070_
*117 _071_
*118 _072_
*119 _073_
*120 _074_
*121 _075_
*122 _076_
*123 _077_
*124 _078_
*125 _079_
*126 _080_
*127 _081_
*128 _082_
*129 _083_
*130 _084_
*131 _085_
*132 _086_
*133 _087_
*134 _088_
*135 _089_
*136 _090_
*137 _091_
*138 _092_
*139 _093_
*140 _094_
*141 _095_
*142 _096_
*143 _097_
*144 _098_
*145 _099_
*146 _100_
*147 _101_
*148 _102_
*149 _103_
*150 _104_
*151 _105_
*152 _106_
*153 _107_
*154 _108_
*155 _109_
*156 _110_
*157 _111_
*158 _112_
*159 _113_
*160 _114_
*161 _115_
*162 _116_
*163 _117_
*164 _118_
*165 _119_
*166 _120_
*167 _121_
*168 _122_
*169 _123_
*170 _124_
*171 _125_
*172 _126_
*173 _127_
*174 _128_
*175 _129_
*176 _130_
*177 _131_
*178 _132_
*179 _133_
*180 _134_
*181 _135_
*182 _136_
*183 clknet_0_clk
*184 clknet_2_0__leaf_clk
*185 clknet_2_1__leaf_clk
*186 clknet_2_2__leaf_clk
*187 clknet_2_3__leaf_clk
*188 counter\[0\]
*189 counter\[10\]
*190 counter\[11\]
*191 counter\[12\]
*192 counter\[13\]
*193 counter\[14\]
*194 counter\[15\]
*195 counter\[1\]
*196 counter\[2\]
*197 counter\[3\]
*198 counter\[4\]
*199 counter\[5\]
*200 counter\[6\]
*201 counter\[7\]
*202 counter\[8\]
*203 counter\[9\]
*204 div_clk
*205 lfsr\[0\]
*206 lfsr\[10\]
*207 lfsr\[11\]
*208 lfsr\[12\]
*209 lfsr\[13\]
*210 lfsr\[14\]
*211 lfsr\[15\]
*212 lfsr\[1\]
*213 lfsr\[2\]
*214 lfsr\[3\]
*215 lfsr\[4\]
*216 lfsr\[5\]
*217 lfsr\[6\]
*218 lfsr\[7\]
*219 lfsr\[8\]
*220 lfsr\[9\]
*221 net1
*222 net10
*223 net11
*224 net12
*225 net13
*226 net14
*227 net15
*228 net16
*229 net17
*230 net18
*231 net19
*232 net2
*233 net20
*234 net21
*235 net22
*236 net23
*237 net24
*238 net3
*239 net4
*240 net41
*241 net42
*242 net43
*243 net44
*244 net45
*245 net46
*246 net47
*247 net5
*248 net6
*249 net7
*250 net8
*251 net9
*252 FILLER_0_0_109
*253 FILLER_0_0_113
*254 FILLER_0_0_125
*255 FILLER_0_0_137
*256 FILLER_0_0_141
*257 FILLER_0_0_15
*258 FILLER_0_0_153
*259 FILLER_0_0_165
*260 FILLER_0_0_169
*261 FILLER_0_0_181
*262 FILLER_0_0_193
*263 FILLER_0_0_197
*264 FILLER_0_0_209
*265 FILLER_0_0_221
*266 FILLER_0_0_225
*267 FILLER_0_0_237
*268 FILLER_0_0_249
*269 FILLER_0_0_253
*270 FILLER_0_0_265
*271 FILLER_0_0_27
*272 FILLER_0_0_277
*273 FILLER_0_0_281
*274 FILLER_0_0_29
*275 FILLER_0_0_293
*276 FILLER_0_0_3
*277 FILLER_0_0_305
*278 FILLER_0_0_309
*279 FILLER_0_0_321
*280 FILLER_0_0_333
*281 FILLER_0_0_337
*282 FILLER_0_0_349
*283 FILLER_0_0_41
*284 FILLER_0_0_53
*285 FILLER_0_0_57
*286 FILLER_0_0_69
*287 FILLER_0_0_81
*288 FILLER_0_0_85
*289 FILLER_0_0_97
*290 FILLER_0_10_109
*291 FILLER_0_10_121
*292 FILLER_0_10_133
*293 FILLER_0_10_139
*294 FILLER_0_10_141
*295 FILLER_0_10_15
*296 FILLER_0_10_153
*297 FILLER_0_10_165
*298 FILLER_0_10_177
*299 FILLER_0_10_189
*300 FILLER_0_10_195
*301 FILLER_0_10_197
*302 FILLER_0_10_209
*303 FILLER_0_10_221
*304 FILLER_0_10_233
*305 FILLER_0_10_245
*306 FILLER_0_10_251
*307 FILLER_0_10_253
*308 FILLER_0_10_265
*309 FILLER_0_10_27
*310 FILLER_0_10_277
*311 FILLER_0_10_289
*312 FILLER_0_10_29
*313 FILLER_0_10_3
*314 FILLER_0_10_301
*315 FILLER_0_10_307
*316 FILLER_0_10_309
*317 FILLER_0_10_321
*318 FILLER_0_10_333
*319 FILLER_0_10_345
*320 FILLER_0_10_41
*321 FILLER_0_10_53
*322 FILLER_0_10_65
*323 FILLER_0_10_77
*324 FILLER_0_10_83
*325 FILLER_0_10_85
*326 FILLER_0_10_97
*327 FILLER_0_11_105
*328 FILLER_0_11_111
*329 FILLER_0_11_113
*330 FILLER_0_11_125
*331 FILLER_0_11_137
*332 FILLER_0_11_149
*333 FILLER_0_11_15
*334 FILLER_0_11_161
*335 FILLER_0_11_167
*336 FILLER_0_11_169
*337 FILLER_0_11_181
*338 FILLER_0_11_193
*339 FILLER_0_11_205
*340 FILLER_0_11_217
*341 FILLER_0_11_223
*342 FILLER_0_11_225
*343 FILLER_0_11_237
*344 FILLER_0_11_249
*345 FILLER_0_11_261
*346 FILLER_0_11_27
*347 FILLER_0_11_273
*348 FILLER_0_11_279
*349 FILLER_0_11_281
*350 FILLER_0_11_293
*351 FILLER_0_11_3
*352 FILLER_0_11_305
*353 FILLER_0_11_317
*354 FILLER_0_11_329
*355 FILLER_0_11_335
*356 FILLER_0_11_337
*357 FILLER_0_11_349
*358 FILLER_0_11_39
*359 FILLER_0_11_51
*360 FILLER_0_11_55
*361 FILLER_0_11_57
*362 FILLER_0_11_69
*363 FILLER_0_11_81
*364 FILLER_0_11_93
*365 FILLER_0_12_109
*366 FILLER_0_12_121
*367 FILLER_0_12_133
*368 FILLER_0_12_139
*369 FILLER_0_12_141
*370 FILLER_0_12_15
*371 FILLER_0_12_153
*372 FILLER_0_12_165
*373 FILLER_0_12_177
*374 FILLER_0_12_189
*375 FILLER_0_12_195
*376 FILLER_0_12_197
*377 FILLER_0_12_209
*378 FILLER_0_12_221
*379 FILLER_0_12_233
*380 FILLER_0_12_245
*381 FILLER_0_12_251
*382 FILLER_0_12_253
*383 FILLER_0_12_265
*384 FILLER_0_12_27
*385 FILLER_0_12_277
*386 FILLER_0_12_289
*387 FILLER_0_12_29
*388 FILLER_0_12_3
*389 FILLER_0_12_301
*390 FILLER_0_12_307
*391 FILLER_0_12_309
*392 FILLER_0_12_321
*393 FILLER_0_12_333
*394 FILLER_0_12_345
*395 FILLER_0_12_41
*396 FILLER_0_12_53
*397 FILLER_0_12_65
*398 FILLER_0_12_77
*399 FILLER_0_12_83
*400 FILLER_0_12_85
*401 FILLER_0_12_97
*402 FILLER_0_13_105
*403 FILLER_0_13_111
*404 FILLER_0_13_113
*405 FILLER_0_13_125
*406 FILLER_0_13_137
*407 FILLER_0_13_149
*408 FILLER_0_13_15
*409 FILLER_0_13_161
*410 FILLER_0_13_167
*411 FILLER_0_13_169
*412 FILLER_0_13_181
*413 FILLER_0_13_193
*414 FILLER_0_13_205
*415 FILLER_0_13_217
*416 FILLER_0_13_223
*417 FILLER_0_13_225
*418 FILLER_0_13_237
*419 FILLER_0_13_249
*420 FILLER_0_13_261
*421 FILLER_0_13_27
*422 FILLER_0_13_273
*423 FILLER_0_13_279
*424 FILLER_0_13_281
*425 FILLER_0_13_293
*426 FILLER_0_13_3
*427 FILLER_0_13_305
*428 FILLER_0_13_317
*429 FILLER_0_13_329
*430 FILLER_0_13_335
*431 FILLER_0_13_337
*432 FILLER_0_13_349
*433 FILLER_0_13_39
*434 FILLER_0_13_51
*435 FILLER_0_13_55
*436 FILLER_0_13_57
*437 FILLER_0_13_69
*438 FILLER_0_13_81
*439 FILLER_0_13_93
*440 FILLER_0_14_109
*441 FILLER_0_14_121
*442 FILLER_0_14_133
*443 FILLER_0_14_139
*444 FILLER_0_14_141
*445 FILLER_0_14_15
*446 FILLER_0_14_153
*447 FILLER_0_14_165
*448 FILLER_0_14_177
*449 FILLER_0_14_189
*450 FILLER_0_14_195
*451 FILLER_0_14_197
*452 FILLER_0_14_209
*453 FILLER_0_14_221
*454 FILLER_0_14_233
*455 FILLER_0_14_245
*456 FILLER_0_14_251
*457 FILLER_0_14_253
*458 FILLER_0_14_265
*459 FILLER_0_14_27
*460 FILLER_0_14_277
*461 FILLER_0_14_289
*462 FILLER_0_14_29
*463 FILLER_0_14_3
*464 FILLER_0_14_301
*465 FILLER_0_14_307
*466 FILLER_0_14_309
*467 FILLER_0_14_321
*468 FILLER_0_14_333
*469 FILLER_0_14_345
*470 FILLER_0_14_41
*471 FILLER_0_14_53
*472 FILLER_0_14_65
*473 FILLER_0_14_77
*474 FILLER_0_14_83
*475 FILLER_0_14_85
*476 FILLER_0_14_97
*477 FILLER_0_15_105
*478 FILLER_0_15_111
*479 FILLER_0_15_113
*480 FILLER_0_15_125
*481 FILLER_0_15_137
*482 FILLER_0_15_149
*483 FILLER_0_15_15
*484 FILLER_0_15_161
*485 FILLER_0_15_167
*486 FILLER_0_15_169
*487 FILLER_0_15_181
*488 FILLER_0_15_193
*489 FILLER_0_15_205
*490 FILLER_0_15_217
*491 FILLER_0_15_223
*492 FILLER_0_15_225
*493 FILLER_0_15_237
*494 FILLER_0_15_249
*495 FILLER_0_15_261
*496 FILLER_0_15_27
*497 FILLER_0_15_273
*498 FILLER_0_15_279
*499 FILLER_0_15_281
*500 FILLER_0_15_293
*501 FILLER_0_15_3
*502 FILLER_0_15_305
*503 FILLER_0_15_317
*504 FILLER_0_15_329
*505 FILLER_0_15_335
*506 FILLER_0_15_337
*507 FILLER_0_15_349
*508 FILLER_0_15_39
*509 FILLER_0_15_51
*510 FILLER_0_15_55
*511 FILLER_0_15_57
*512 FILLER_0_15_69
*513 FILLER_0_15_81
*514 FILLER_0_15_93
*515 FILLER_0_16_109
*516 FILLER_0_16_121
*517 FILLER_0_16_133
*518 FILLER_0_16_139
*519 FILLER_0_16_141
*520 FILLER_0_16_15
*521 FILLER_0_16_153
*522 FILLER_0_16_165
*523 FILLER_0_16_177
*524 FILLER_0_16_189
*525 FILLER_0_16_195
*526 FILLER_0_16_197
*527 FILLER_0_16_209
*528 FILLER_0_16_221
*529 FILLER_0_16_233
*530 FILLER_0_16_245
*531 FILLER_0_16_251
*532 FILLER_0_16_253
*533 FILLER_0_16_265
*534 FILLER_0_16_27
*535 FILLER_0_16_277
*536 FILLER_0_16_289
*537 FILLER_0_16_29
*538 FILLER_0_16_3
*539 FILLER_0_16_301
*540 FILLER_0_16_307
*541 FILLER_0_16_309
*542 FILLER_0_16_321
*543 FILLER_0_16_333
*544 FILLER_0_16_345
*545 FILLER_0_16_41
*546 FILLER_0_16_53
*547 FILLER_0_16_65
*548 FILLER_0_16_77
*549 FILLER_0_16_83
*550 FILLER_0_16_85
*551 FILLER_0_16_97
*552 FILLER_0_17_105
*553 FILLER_0_17_111
*554 FILLER_0_17_113
*555 FILLER_0_17_125
*556 FILLER_0_17_137
*557 FILLER_0_17_149
*558 FILLER_0_17_15
*559 FILLER_0_17_161
*560 FILLER_0_17_167
*561 FILLER_0_17_169
*562 FILLER_0_17_181
*563 FILLER_0_17_193
*564 FILLER_0_17_205
*565 FILLER_0_17_217
*566 FILLER_0_17_223
*567 FILLER_0_17_225
*568 FILLER_0_17_237
*569 FILLER_0_17_249
*570 FILLER_0_17_261
*571 FILLER_0_17_27
*572 FILLER_0_17_273
*573 FILLER_0_17_279
*574 FILLER_0_17_281
*575 FILLER_0_17_293
*576 FILLER_0_17_3
*577 FILLER_0_17_305
*578 FILLER_0_17_317
*579 FILLER_0_17_329
*580 FILLER_0_17_335
*581 FILLER_0_17_337
*582 FILLER_0_17_349
*583 FILLER_0_17_39
*584 FILLER_0_17_51
*585 FILLER_0_17_55
*586 FILLER_0_17_57
*587 FILLER_0_17_69
*588 FILLER_0_17_81
*589 FILLER_0_17_93
*590 FILLER_0_18_109
*591 FILLER_0_18_121
*592 FILLER_0_18_133
*593 FILLER_0_18_139
*594 FILLER_0_18_141
*595 FILLER_0_18_15
*596 FILLER_0_18_153
*597 FILLER_0_18_165
*598 FILLER_0_18_177
*599 FILLER_0_18_189
*600 FILLER_0_18_195
*601 FILLER_0_18_197
*602 FILLER_0_18_209
*603 FILLER_0_18_221
*604 FILLER_0_18_233
*605 FILLER_0_18_245
*606 FILLER_0_18_251
*607 FILLER_0_18_253
*608 FILLER_0_18_265
*609 FILLER_0_18_27
*610 FILLER_0_18_277
*611 FILLER_0_18_289
*612 FILLER_0_18_29
*613 FILLER_0_18_3
*614 FILLER_0_18_301
*615 FILLER_0_18_307
*616 FILLER_0_18_309
*617 FILLER_0_18_321
*618 FILLER_0_18_333
*619 FILLER_0_18_345
*620 FILLER_0_18_41
*621 FILLER_0_18_53
*622 FILLER_0_18_65
*623 FILLER_0_18_77
*624 FILLER_0_18_83
*625 FILLER_0_18_85
*626 FILLER_0_18_97
*627 FILLER_0_19_105
*628 FILLER_0_19_111
*629 FILLER_0_19_113
*630 FILLER_0_19_125
*631 FILLER_0_19_137
*632 FILLER_0_19_149
*633 FILLER_0_19_15
*634 FILLER_0_19_161
*635 FILLER_0_19_167
*636 FILLER_0_19_169
*637 FILLER_0_19_181
*638 FILLER_0_19_193
*639 FILLER_0_19_205
*640 FILLER_0_19_217
*641 FILLER_0_19_223
*642 FILLER_0_19_225
*643 FILLER_0_19_237
*644 FILLER_0_19_249
*645 FILLER_0_19_261
*646 FILLER_0_19_27
*647 FILLER_0_19_273
*648 FILLER_0_19_279
*649 FILLER_0_19_281
*650 FILLER_0_19_293
*651 FILLER_0_19_3
*652 FILLER_0_19_305
*653 FILLER_0_19_317
*654 FILLER_0_19_329
*655 FILLER_0_19_335
*656 FILLER_0_19_337
*657 FILLER_0_19_349
*658 FILLER_0_19_39
*659 FILLER_0_19_51
*660 FILLER_0_19_55
*661 FILLER_0_19_57
*662 FILLER_0_19_69
*663 FILLER_0_19_81
*664 FILLER_0_19_93
*665 FILLER_0_1_105
*666 FILLER_0_1_111
*667 FILLER_0_1_113
*668 FILLER_0_1_125
*669 FILLER_0_1_137
*670 FILLER_0_1_149
*671 FILLER_0_1_15
*672 FILLER_0_1_161
*673 FILLER_0_1_167
*674 FILLER_0_1_169
*675 FILLER_0_1_181
*676 FILLER_0_1_193
*677 FILLER_0_1_205
*678 FILLER_0_1_217
*679 FILLER_0_1_223
*680 FILLER_0_1_225
*681 FILLER_0_1_237
*682 FILLER_0_1_249
*683 FILLER_0_1_261
*684 FILLER_0_1_27
*685 FILLER_0_1_273
*686 FILLER_0_1_279
*687 FILLER_0_1_281
*688 FILLER_0_1_293
*689 FILLER_0_1_3
*690 FILLER_0_1_305
*691 FILLER_0_1_317
*692 FILLER_0_1_329
*693 FILLER_0_1_335
*694 FILLER_0_1_337
*695 FILLER_0_1_349
*696 FILLER_0_1_39
*697 FILLER_0_1_51
*698 FILLER_0_1_55
*699 FILLER_0_1_57
*700 FILLER_0_1_69
*701 FILLER_0_1_81
*702 FILLER_0_1_93
*703 FILLER_0_20_109
*704 FILLER_0_20_121
*705 FILLER_0_20_133
*706 FILLER_0_20_139
*707 FILLER_0_20_141
*708 FILLER_0_20_15
*709 FILLER_0_20_153
*710 FILLER_0_20_165
*711 FILLER_0_20_177
*712 FILLER_0_20_189
*713 FILLER_0_20_195
*714 FILLER_0_20_197
*715 FILLER_0_20_209
*716 FILLER_0_20_221
*717 FILLER_0_20_233
*718 FILLER_0_20_245
*719 FILLER_0_20_251
*720 FILLER_0_20_253
*721 FILLER_0_20_265
*722 FILLER_0_20_27
*723 FILLER_0_20_277
*724 FILLER_0_20_289
*725 FILLER_0_20_29
*726 FILLER_0_20_3
*727 FILLER_0_20_301
*728 FILLER_0_20_307
*729 FILLER_0_20_309
*730 FILLER_0_20_321
*731 FILLER_0_20_333
*732 FILLER_0_20_345
*733 FILLER_0_20_41
*734 FILLER_0_20_53
*735 FILLER_0_20_65
*736 FILLER_0_20_77
*737 FILLER_0_20_83
*738 FILLER_0_20_85
*739 FILLER_0_20_97
*740 FILLER_0_21_105
*741 FILLER_0_21_111
*742 FILLER_0_21_113
*743 FILLER_0_21_125
*744 FILLER_0_21_137
*745 FILLER_0_21_149
*746 FILLER_0_21_15
*747 FILLER_0_21_161
*748 FILLER_0_21_167
*749 FILLER_0_21_169
*750 FILLER_0_21_181
*751 FILLER_0_21_193
*752 FILLER_0_21_205
*753 FILLER_0_21_217
*754 FILLER_0_21_223
*755 FILLER_0_21_225
*756 FILLER_0_21_237
*757 FILLER_0_21_249
*758 FILLER_0_21_261
*759 FILLER_0_21_27
*760 FILLER_0_21_273
*761 FILLER_0_21_279
*762 FILLER_0_21_281
*763 FILLER_0_21_293
*764 FILLER_0_21_3
*765 FILLER_0_21_305
*766 FILLER_0_21_317
*767 FILLER_0_21_329
*768 FILLER_0_21_335
*769 FILLER_0_21_337
*770 FILLER_0_21_349
*771 FILLER_0_21_39
*772 FILLER_0_21_51
*773 FILLER_0_21_55
*774 FILLER_0_21_57
*775 FILLER_0_21_69
*776 FILLER_0_21_81
*777 FILLER_0_21_93
*778 FILLER_0_22_109
*779 FILLER_0_22_121
*780 FILLER_0_22_133
*781 FILLER_0_22_139
*782 FILLER_0_22_141
*783 FILLER_0_22_15
*784 FILLER_0_22_153
*785 FILLER_0_22_165
*786 FILLER_0_22_177
*787 FILLER_0_22_189
*788 FILLER_0_22_195
*789 FILLER_0_22_197
*790 FILLER_0_22_209
*791 FILLER_0_22_221
*792 FILLER_0_22_233
*793 FILLER_0_22_245
*794 FILLER_0_22_251
*795 FILLER_0_22_253
*796 FILLER_0_22_265
*797 FILLER_0_22_27
*798 FILLER_0_22_277
*799 FILLER_0_22_289
*800 FILLER_0_22_29
*801 FILLER_0_22_3
*802 FILLER_0_22_301
*803 FILLER_0_22_307
*804 FILLER_0_22_309
*805 FILLER_0_22_321
*806 FILLER_0_22_333
*807 FILLER_0_22_345
*808 FILLER_0_22_41
*809 FILLER_0_22_53
*810 FILLER_0_22_65
*811 FILLER_0_22_77
*812 FILLER_0_22_83
*813 FILLER_0_22_85
*814 FILLER_0_22_97
*815 FILLER_0_23_105
*816 FILLER_0_23_111
*817 FILLER_0_23_113
*818 FILLER_0_23_125
*819 FILLER_0_23_137
*820 FILLER_0_23_149
*821 FILLER_0_23_15
*822 FILLER_0_23_161
*823 FILLER_0_23_167
*824 FILLER_0_23_169
*825 FILLER_0_23_181
*826 FILLER_0_23_193
*827 FILLER_0_23_205
*828 FILLER_0_23_217
*829 FILLER_0_23_223
*830 FILLER_0_23_225
*831 FILLER_0_23_237
*832 FILLER_0_23_249
*833 FILLER_0_23_261
*834 FILLER_0_23_27
*835 FILLER_0_23_273
*836 FILLER_0_23_279
*837 FILLER_0_23_281
*838 FILLER_0_23_293
*839 FILLER_0_23_3
*840 FILLER_0_23_305
*841 FILLER_0_23_317
*842 FILLER_0_23_329
*843 FILLER_0_23_335
*844 FILLER_0_23_337
*845 FILLER_0_23_349
*846 FILLER_0_23_39
*847 FILLER_0_23_51
*848 FILLER_0_23_55
*849 FILLER_0_23_57
*850 FILLER_0_23_69
*851 FILLER_0_23_81
*852 FILLER_0_23_93
*853 FILLER_0_24_109
*854 FILLER_0_24_121
*855 FILLER_0_24_133
*856 FILLER_0_24_139
*857 FILLER_0_24_141
*858 FILLER_0_24_15
*859 FILLER_0_24_153
*860 FILLER_0_24_165
*861 FILLER_0_24_177
*862 FILLER_0_24_189
*863 FILLER_0_24_195
*864 FILLER_0_24_197
*865 FILLER_0_24_209
*866 FILLER_0_24_221
*867 FILLER_0_24_233
*868 FILLER_0_24_245
*869 FILLER_0_24_251
*870 FILLER_0_24_253
*871 FILLER_0_24_265
*872 FILLER_0_24_27
*873 FILLER_0_24_277
*874 FILLER_0_24_289
*875 FILLER_0_24_29
*876 FILLER_0_24_3
*877 FILLER_0_24_301
*878 FILLER_0_24_307
*879 FILLER_0_24_309
*880 FILLER_0_24_321
*881 FILLER_0_24_333
*882 FILLER_0_24_345
*883 FILLER_0_24_41
*884 FILLER_0_24_53
*885 FILLER_0_24_65
*886 FILLER_0_24_77
*887 FILLER_0_24_83
*888 FILLER_0_24_85
*889 FILLER_0_24_97
*890 FILLER_0_25_105
*891 FILLER_0_25_111
*892 FILLER_0_25_113
*893 FILLER_0_25_125
*894 FILLER_0_25_137
*895 FILLER_0_25_149
*896 FILLER_0_25_15
*897 FILLER_0_25_161
*898 FILLER_0_25_167
*899 FILLER_0_25_169
*900 FILLER_0_25_181
*901 FILLER_0_25_193
*902 FILLER_0_25_205
*903 FILLER_0_25_217
*904 FILLER_0_25_223
*905 FILLER_0_25_225
*906 FILLER_0_25_237
*907 FILLER_0_25_249
*908 FILLER_0_25_261
*909 FILLER_0_25_27
*910 FILLER_0_25_273
*911 FILLER_0_25_279
*912 FILLER_0_25_281
*913 FILLER_0_25_293
*914 FILLER_0_25_3
*915 FILLER_0_25_305
*916 FILLER_0_25_317
*917 FILLER_0_25_329
*918 FILLER_0_25_335
*919 FILLER_0_25_337
*920 FILLER_0_25_349
*921 FILLER_0_25_39
*922 FILLER_0_25_51
*923 FILLER_0_25_55
*924 FILLER_0_25_57
*925 FILLER_0_25_69
*926 FILLER_0_25_81
*927 FILLER_0_25_93
*928 FILLER_0_26_109
*929 FILLER_0_26_121
*930 FILLER_0_26_133
*931 FILLER_0_26_139
*932 FILLER_0_26_141
*933 FILLER_0_26_15
*934 FILLER_0_26_153
*935 FILLER_0_26_165
*936 FILLER_0_26_177
*937 FILLER_0_26_189
*938 FILLER_0_26_195
*939 FILLER_0_26_197
*940 FILLER_0_26_209
*941 FILLER_0_26_221
*942 FILLER_0_26_233
*943 FILLER_0_26_245
*944 FILLER_0_26_251
*945 FILLER_0_26_253
*946 FILLER_0_26_265
*947 FILLER_0_26_27
*948 FILLER_0_26_277
*949 FILLER_0_26_289
*950 FILLER_0_26_29
*951 FILLER_0_26_3
*952 FILLER_0_26_301
*953 FILLER_0_26_307
*954 FILLER_0_26_309
*955 FILLER_0_26_321
*956 FILLER_0_26_333
*957 FILLER_0_26_345
*958 FILLER_0_26_41
*959 FILLER_0_26_53
*960 FILLER_0_26_65
*961 FILLER_0_26_77
*962 FILLER_0_26_83
*963 FILLER_0_26_85
*964 FILLER_0_26_97
*965 FILLER_0_27_105
*966 FILLER_0_27_111
*967 FILLER_0_27_113
*968 FILLER_0_27_117
*969 FILLER_0_27_137
*970 FILLER_0_27_15
*971 FILLER_0_27_158
*972 FILLER_0_27_166
*973 FILLER_0_27_189
*974 FILLER_0_27_201
*975 FILLER_0_27_213
*976 FILLER_0_27_221
*977 FILLER_0_27_225
*978 FILLER_0_27_254
*979 FILLER_0_27_266
*980 FILLER_0_27_27
*981 FILLER_0_27_278
*982 FILLER_0_27_281
*983 FILLER_0_27_293
*984 FILLER_0_27_3
*985 FILLER_0_27_305
*986 FILLER_0_27_317
*987 FILLER_0_27_329
*988 FILLER_0_27_335
*989 FILLER_0_27_337
*990 FILLER_0_27_349
*991 FILLER_0_27_39
*992 FILLER_0_27_51
*993 FILLER_0_27_55
*994 FILLER_0_27_57
*995 FILLER_0_27_69
*996 FILLER_0_27_81
*997 FILLER_0_27_93
*998 FILLER_0_28_109
*999 FILLER_0_28_134
*1000 FILLER_0_28_15
*1001 FILLER_0_28_150
*1002 FILLER_0_28_188
*1003 FILLER_0_28_197
*1004 FILLER_0_28_211
*1005 FILLER_0_28_223
*1006 FILLER_0_28_253
*1007 FILLER_0_28_259
*1008 FILLER_0_28_263
*1009 FILLER_0_28_27
*1010 FILLER_0_28_275
*1011 FILLER_0_28_287
*1012 FILLER_0_28_29
*1013 FILLER_0_28_299
*1014 FILLER_0_28_3
*1015 FILLER_0_28_306
*1016 FILLER_0_28_309
*1017 FILLER_0_28_321
*1018 FILLER_0_28_333
*1019 FILLER_0_28_345
*1020 FILLER_0_28_41
*1021 FILLER_0_28_53
*1022 FILLER_0_28_65
*1023 FILLER_0_28_77
*1024 FILLER_0_28_83
*1025 FILLER_0_28_85
*1026 FILLER_0_28_97
*1027 FILLER_0_29_105
*1028 FILLER_0_29_141
*1029 FILLER_0_29_15
*1030 FILLER_0_29_178
*1031 FILLER_0_29_190
*1032 FILLER_0_29_216
*1033 FILLER_0_29_220
*1034 FILLER_0_29_225
*1035 FILLER_0_29_27
*1036 FILLER_0_29_271
*1037 FILLER_0_29_279
*1038 FILLER_0_29_3
*1039 FILLER_0_29_322
*1040 FILLER_0_29_334
*1041 FILLER_0_29_337
*1042 FILLER_0_29_349
*1043 FILLER_0_29_39
*1044 FILLER_0_29_51
*1045 FILLER_0_29_55
*1046 FILLER_0_29_57
*1047 FILLER_0_29_69
*1048 FILLER_0_29_81
*1049 FILLER_0_29_93
*1050 FILLER_0_2_109
*1051 FILLER_0_2_121
*1052 FILLER_0_2_133
*1053 FILLER_0_2_139
*1054 FILLER_0_2_141
*1055 FILLER_0_2_15
*1056 FILLER_0_2_153
*1057 FILLER_0_2_165
*1058 FILLER_0_2_177
*1059 FILLER_0_2_189
*1060 FILLER_0_2_195
*1061 FILLER_0_2_197
*1062 FILLER_0_2_209
*1063 FILLER_0_2_221
*1064 FILLER_0_2_233
*1065 FILLER_0_2_245
*1066 FILLER_0_2_251
*1067 FILLER_0_2_253
*1068 FILLER_0_2_265
*1069 FILLER_0_2_27
*1070 FILLER_0_2_277
*1071 FILLER_0_2_289
*1072 FILLER_0_2_29
*1073 FILLER_0_2_3
*1074 FILLER_0_2_301
*1075 FILLER_0_2_307
*1076 FILLER_0_2_309
*1077 FILLER_0_2_321
*1078 FILLER_0_2_333
*1079 FILLER_0_2_345
*1080 FILLER_0_2_41
*1081 FILLER_0_2_53
*1082 FILLER_0_2_65
*1083 FILLER_0_2_77
*1084 FILLER_0_2_83
*1085 FILLER_0_2_85
*1086 FILLER_0_2_97
*1087 FILLER_0_30_109
*1088 FILLER_0_30_117
*1089 FILLER_0_30_139
*1090 FILLER_0_30_148
*1091 FILLER_0_30_15
*1092 FILLER_0_30_160
*1093 FILLER_0_30_172
*1094 FILLER_0_30_184
*1095 FILLER_0_30_197
*1096 FILLER_0_30_210
*1097 FILLER_0_30_222
*1098 FILLER_0_30_230
*1099 FILLER_0_30_264
*1100 FILLER_0_30_27
*1101 FILLER_0_30_277
*1102 FILLER_0_30_29
*1103 FILLER_0_30_3
*1104 FILLER_0_30_309
*1105 FILLER_0_30_317
*1106 FILLER_0_30_343
*1107 FILLER_0_30_41
*1108 FILLER_0_30_53
*1109 FILLER_0_30_65
*1110 FILLER_0_30_77
*1111 FILLER_0_30_83
*1112 FILLER_0_30_85
*1113 FILLER_0_30_97
*1114 FILLER_0_31_105
*1115 FILLER_0_31_111
*1116 FILLER_0_31_116
*1117 FILLER_0_31_140
*1118 FILLER_0_31_15
*1119 FILLER_0_31_152
*1120 FILLER_0_31_167
*1121 FILLER_0_31_189
*1122 FILLER_0_31_225
*1123 FILLER_0_31_234
*1124 FILLER_0_31_240
*1125 FILLER_0_31_248
*1126 FILLER_0_31_27
*1127 FILLER_0_31_271
*1128 FILLER_0_31_279
*1129 FILLER_0_31_3
*1130 FILLER_0_31_345
*1131 FILLER_0_31_39
*1132 FILLER_0_31_51
*1133 FILLER_0_31_55
*1134 FILLER_0_31_57
*1135 FILLER_0_31_69
*1136 FILLER_0_31_81
*1137 FILLER_0_31_93
*1138 FILLER_0_32_105
*1139 FILLER_0_32_128
*1140 FILLER_0_32_136
*1141 FILLER_0_32_15
*1142 FILLER_0_32_150
*1143 FILLER_0_32_154
*1144 FILLER_0_32_185
*1145 FILLER_0_32_197
*1146 FILLER_0_32_232
*1147 FILLER_0_32_240
*1148 FILLER_0_32_248
*1149 FILLER_0_32_258
*1150 FILLER_0_32_27
*1151 FILLER_0_32_285
*1152 FILLER_0_32_29
*1153 FILLER_0_32_293
*1154 FILLER_0_32_3
*1155 FILLER_0_32_305
*1156 FILLER_0_32_309
*1157 FILLER_0_32_335
*1158 FILLER_0_32_347
*1159 FILLER_0_32_41
*1160 FILLER_0_32_53
*1161 FILLER_0_32_65
*1162 FILLER_0_32_77
*1163 FILLER_0_32_83
*1164 FILLER_0_32_85
*1165 FILLER_0_32_97
*1166 FILLER_0_33_105
*1167 FILLER_0_33_111
*1168 FILLER_0_33_113
*1169 FILLER_0_33_127
*1170 FILLER_0_33_135
*1171 FILLER_0_33_15
*1172 FILLER_0_33_180
*1173 FILLER_0_33_192
*1174 FILLER_0_33_200
*1175 FILLER_0_33_214
*1176 FILLER_0_33_222
*1177 FILLER_0_33_245
*1178 FILLER_0_33_27
*1179 FILLER_0_33_276
*1180 FILLER_0_33_281
*1181 FILLER_0_33_285
*1182 FILLER_0_33_3
*1183 FILLER_0_33_306
*1184 FILLER_0_33_318
*1185 FILLER_0_33_332
*1186 FILLER_0_33_337
*1187 FILLER_0_33_349
*1188 FILLER_0_33_39
*1189 FILLER_0_33_51
*1190 FILLER_0_33_55
*1191 FILLER_0_33_57
*1192 FILLER_0_33_69
*1193 FILLER_0_33_81
*1194 FILLER_0_33_93
*1195 FILLER_0_34_138
*1196 FILLER_0_34_141
*1197 FILLER_0_34_149
*1198 FILLER_0_34_15
*1199 FILLER_0_34_154
*1200 FILLER_0_34_176
*1201 FILLER_0_34_190
*1202 FILLER_0_34_197
*1203 FILLER_0_34_207
*1204 FILLER_0_34_223
*1205 FILLER_0_34_228
*1206 FILLER_0_34_240
*1207 FILLER_0_34_253
*1208 FILLER_0_34_265
*1209 FILLER_0_34_27
*1210 FILLER_0_34_277
*1211 FILLER_0_34_29
*1212 FILLER_0_34_3
*1213 FILLER_0_34_303
*1214 FILLER_0_34_307
*1215 FILLER_0_34_309
*1216 FILLER_0_34_313
*1217 FILLER_0_34_336
*1218 FILLER_0_34_348
*1219 FILLER_0_34_41
*1220 FILLER_0_34_53
*1221 FILLER_0_34_65
*1222 FILLER_0_34_77
*1223 FILLER_0_34_83
*1224 FILLER_0_34_85
*1225 FILLER_0_34_97
*1226 FILLER_0_35_105
*1227 FILLER_0_35_111
*1228 FILLER_0_35_113
*1229 FILLER_0_35_137
*1230 FILLER_0_35_141
*1231 FILLER_0_35_15
*1232 FILLER_0_35_162
*1233 FILLER_0_35_169
*1234 FILLER_0_35_179
*1235 FILLER_0_35_191
*1236 FILLER_0_35_195
*1237 FILLER_0_35_216
*1238 FILLER_0_35_225
*1239 FILLER_0_35_237
*1240 FILLER_0_35_241
*1241 FILLER_0_35_249
*1242 FILLER_0_35_261
*1243 FILLER_0_35_27
*1244 FILLER_0_35_286
*1245 FILLER_0_35_298
*1246 FILLER_0_35_3
*1247 FILLER_0_35_306
*1248 FILLER_0_35_347
*1249 FILLER_0_35_39
*1250 FILLER_0_35_51
*1251 FILLER_0_35_55
*1252 FILLER_0_35_57
*1253 FILLER_0_35_69
*1254 FILLER_0_35_81
*1255 FILLER_0_35_93
*1256 FILLER_0_36_109
*1257 FILLER_0_36_135
*1258 FILLER_0_36_139
*1259 FILLER_0_36_15
*1260 FILLER_0_36_189
*1261 FILLER_0_36_195
*1262 FILLER_0_36_197
*1263 FILLER_0_36_206
*1264 FILLER_0_36_214
*1265 FILLER_0_36_218
*1266 FILLER_0_36_232
*1267 FILLER_0_36_240
*1268 FILLER_0_36_248
*1269 FILLER_0_36_259
*1270 FILLER_0_36_27
*1271 FILLER_0_36_277
*1272 FILLER_0_36_29
*1273 FILLER_0_36_299
*1274 FILLER_0_36_3
*1275 FILLER_0_36_307
*1276 FILLER_0_36_309
*1277 FILLER_0_36_344
*1278 FILLER_0_36_350
*1279 FILLER_0_36_41
*1280 FILLER_0_36_53
*1281 FILLER_0_36_65
*1282 FILLER_0_36_77
*1283 FILLER_0_36_83
*1284 FILLER_0_36_85
*1285 FILLER_0_36_97
*1286 FILLER_0_37_105
*1287 FILLER_0_37_111
*1288 FILLER_0_37_113
*1289 FILLER_0_37_122
*1290 FILLER_0_37_149
*1291 FILLER_0_37_15
*1292 FILLER_0_37_156
*1293 FILLER_0_37_182
*1294 FILLER_0_37_223
*1295 FILLER_0_37_232
*1296 FILLER_0_37_250
*1297 FILLER_0_37_262
*1298 FILLER_0_37_27
*1299 FILLER_0_37_271
*1300 FILLER_0_37_297
*1301 FILLER_0_37_3
*1302 FILLER_0_37_309
*1303 FILLER_0_37_347
*1304 FILLER_0_37_39
*1305 FILLER_0_37_51
*1306 FILLER_0_37_55
*1307 FILLER_0_37_57
*1308 FILLER_0_37_69
*1309 FILLER_0_37_81
*1310 FILLER_0_37_93
*1311 FILLER_0_38_104
*1312 FILLER_0_38_110
*1313 FILLER_0_38_116
*1314 FILLER_0_38_122
*1315 FILLER_0_38_128
*1316 FILLER_0_38_134
*1317 FILLER_0_38_147
*1318 FILLER_0_38_15
*1319 FILLER_0_38_158
*1320 FILLER_0_38_166
*1321 FILLER_0_38_169
*1322 FILLER_0_38_181
*1323 FILLER_0_38_191
*1324 FILLER_0_38_195
*1325 FILLER_0_38_197
*1326 FILLER_0_38_201
*1327 FILLER_0_38_206
*1328 FILLER_0_38_212
*1329 FILLER_0_38_223
*1330 FILLER_0_38_242
*1331 FILLER_0_38_248
*1332 FILLER_0_38_256
*1333 FILLER_0_38_260
*1334 FILLER_0_38_266
*1335 FILLER_0_38_27
*1336 FILLER_0_38_272
*1337 FILLER_0_38_278
*1338 FILLER_0_38_284
*1339 FILLER_0_38_29
*1340 FILLER_0_38_290
*1341 FILLER_0_38_296
*1342 FILLER_0_38_3
*1343 FILLER_0_38_302
*1344 FILLER_0_38_309
*1345 FILLER_0_38_321
*1346 FILLER_0_38_333
*1347 FILLER_0_38_337
*1348 FILLER_0_38_349
*1349 FILLER_0_38_41
*1350 FILLER_0_38_53
*1351 FILLER_0_38_57
*1352 FILLER_0_38_68
*1353 FILLER_0_38_74
*1354 FILLER_0_38_80
*1355 FILLER_0_38_88
*1356 FILLER_0_38_92
*1357 FILLER_0_38_98
*1358 FILLER_0_3_105
*1359 FILLER_0_3_111
*1360 FILLER_0_3_113
*1361 FILLER_0_3_125
*1362 FILLER_0_3_137
*1363 FILLER_0_3_149
*1364 FILLER_0_3_15
*1365 FILLER_0_3_161
*1366 FILLER_0_3_167
*1367 FILLER_0_3_169
*1368 FILLER_0_3_181
*1369 FILLER_0_3_193
*1370 FILLER_0_3_205
*1371 FILLER_0_3_217
*1372 FILLER_0_3_223
*1373 FILLER_0_3_225
*1374 FILLER_0_3_237
*1375 FILLER_0_3_249
*1376 FILLER_0_3_261
*1377 FILLER_0_3_27
*1378 FILLER_0_3_273
*1379 FILLER_0_3_279
*1380 FILLER_0_3_281
*1381 FILLER_0_3_293
*1382 FILLER_0_3_3
*1383 FILLER_0_3_305
*1384 FILLER_0_3_317
*1385 FILLER_0_3_329
*1386 FILLER_0_3_335
*1387 FILLER_0_3_337
*1388 FILLER_0_3_349
*1389 FILLER_0_3_39
*1390 FILLER_0_3_51
*1391 FILLER_0_3_55
*1392 FILLER_0_3_57
*1393 FILLER_0_3_69
*1394 FILLER_0_3_81
*1395 FILLER_0_3_93
*1396 FILLER_0_4_109
*1397 FILLER_0_4_121
*1398 FILLER_0_4_133
*1399 FILLER_0_4_139
*1400 FILLER_0_4_141
*1401 FILLER_0_4_15
*1402 FILLER_0_4_153
*1403 FILLER_0_4_165
*1404 FILLER_0_4_177
*1405 FILLER_0_4_189
*1406 FILLER_0_4_195
*1407 FILLER_0_4_197
*1408 FILLER_0_4_209
*1409 FILLER_0_4_221
*1410 FILLER_0_4_233
*1411 FILLER_0_4_245
*1412 FILLER_0_4_251
*1413 FILLER_0_4_253
*1414 FILLER_0_4_265
*1415 FILLER_0_4_27
*1416 FILLER_0_4_277
*1417 FILLER_0_4_289
*1418 FILLER_0_4_29
*1419 FILLER_0_4_3
*1420 FILLER_0_4_301
*1421 FILLER_0_4_307
*1422 FILLER_0_4_309
*1423 FILLER_0_4_321
*1424 FILLER_0_4_333
*1425 FILLER_0_4_345
*1426 FILLER_0_4_41
*1427 FILLER_0_4_53
*1428 FILLER_0_4_65
*1429 FILLER_0_4_77
*1430 FILLER_0_4_83
*1431 FILLER_0_4_85
*1432 FILLER_0_4_97
*1433 FILLER_0_5_105
*1434 FILLER_0_5_111
*1435 FILLER_0_5_113
*1436 FILLER_0_5_125
*1437 FILLER_0_5_137
*1438 FILLER_0_5_149
*1439 FILLER_0_5_15
*1440 FILLER_0_5_161
*1441 FILLER_0_5_167
*1442 FILLER_0_5_169
*1443 FILLER_0_5_181
*1444 FILLER_0_5_193
*1445 FILLER_0_5_205
*1446 FILLER_0_5_217
*1447 FILLER_0_5_223
*1448 FILLER_0_5_225
*1449 FILLER_0_5_237
*1450 FILLER_0_5_249
*1451 FILLER_0_5_261
*1452 FILLER_0_5_27
*1453 FILLER_0_5_273
*1454 FILLER_0_5_279
*1455 FILLER_0_5_281
*1456 FILLER_0_5_293
*1457 FILLER_0_5_3
*1458 FILLER_0_5_305
*1459 FILLER_0_5_317
*1460 FILLER_0_5_329
*1461 FILLER_0_5_335
*1462 FILLER_0_5_337
*1463 FILLER_0_5_349
*1464 FILLER_0_5_39
*1465 FILLER_0_5_51
*1466 FILLER_0_5_55
*1467 FILLER_0_5_57
*1468 FILLER_0_5_69
*1469 FILLER_0_5_81
*1470 FILLER_0_5_93
*1471 FILLER_0_6_109
*1472 FILLER_0_6_121
*1473 FILLER_0_6_133
*1474 FILLER_0_6_139
*1475 FILLER_0_6_141
*1476 FILLER_0_6_15
*1477 FILLER_0_6_153
*1478 FILLER_0_6_165
*1479 FILLER_0_6_177
*1480 FILLER_0_6_189
*1481 FILLER_0_6_195
*1482 FILLER_0_6_197
*1483 FILLER_0_6_209
*1484 FILLER_0_6_221
*1485 FILLER_0_6_233
*1486 FILLER_0_6_245
*1487 FILLER_0_6_251
*1488 FILLER_0_6_253
*1489 FILLER_0_6_265
*1490 FILLER_0_6_27
*1491 FILLER_0_6_277
*1492 FILLER_0_6_289
*1493 FILLER_0_6_29
*1494 FILLER_0_6_3
*1495 FILLER_0_6_301
*1496 FILLER_0_6_307
*1497 FILLER_0_6_309
*1498 FILLER_0_6_321
*1499 FILLER_0_6_333
*1500 FILLER_0_6_345
*1501 FILLER_0_6_41
*1502 FILLER_0_6_53
*1503 FILLER_0_6_65
*1504 FILLER_0_6_77
*1505 FILLER_0_6_83
*1506 FILLER_0_6_85
*1507 FILLER_0_6_97
*1508 FILLER_0_7_105
*1509 FILLER_0_7_111
*1510 FILLER_0_7_113
*1511 FILLER_0_7_125
*1512 FILLER_0_7_137
*1513 FILLER_0_7_149
*1514 FILLER_0_7_15
*1515 FILLER_0_7_161
*1516 FILLER_0_7_167
*1517 FILLER_0_7_169
*1518 FILLER_0_7_181
*1519 FILLER_0_7_193
*1520 FILLER_0_7_205
*1521 FILLER_0_7_217
*1522 FILLER_0_7_223
*1523 FILLER_0_7_225
*1524 FILLER_0_7_237
*1525 FILLER_0_7_249
*1526 FILLER_0_7_261
*1527 FILLER_0_7_27
*1528 FILLER_0_7_273
*1529 FILLER_0_7_279
*1530 FILLER_0_7_281
*1531 FILLER_0_7_293
*1532 FILLER_0_7_3